*SPEF "IEEE 1481-1999"
*DESIGN "brent_kung_32"
*DATE "Fri May 22 11:02:23 2026"
*VENDOR "Synopsys Inc."
*PROGRAM "StarRC"
*VERSION "U-2022.12-SP3"
*DESIGN_FLOW "PIN_CAP NONE" "NAME_SCOPE LOCAL"
*DIVIDER /
*DELIMITER :
*BUS_DELIMITER []
*T_UNIT 1.0 NS
*C_UNIT 1.0 FF
*R_UNIT 1.0 OHM
*L_UNIT 1.0 HENRY

// COMMENTS

// CORNER_NAME 
// OPERATING_TEMPERATURE 25
// GLOBAL_TEMPERATURE 25
// TCAD_GRD_FILE /home2/synopsys/libraries/SAED32_EDK/tech/starrc/nominal/saed32nm_1p9m_nominal.nxtgrd
//   TCAD_TIME_STAMP Wed Mar 16 14:34:54 2011
//   TCADGRD_VERSION 72
// galaxy_comments_begin
//   local_nodeid
// galaxy_comments_end

*NAME_MAP
*306 A[31]
*307 A[30]
*308 A[29]
*309 A[28]
*310 A[27]
*311 A[26]
*312 A[25]
*313 A[24]
*314 A[23]
*315 A[22]
*316 A[21]
*317 A[20]
*318 A[19]
*319 A[18]
*320 A[17]
*321 A[16]
*322 A[15]
*323 A[14]
*324 A[13]
*325 A[12]
*326 A[11]
*327 A[10]
*328 A[9]
*329 A[8]
*330 A[7]
*331 A[6]
*332 A[5]
*333 A[4]
*334 A[3]
*335 A[2]
*336 A[1]
*337 A[0]
*338 B[31]
*339 B[30]
*340 B[29]
*341 B[28]
*342 B[27]
*343 B[26]
*344 B[25]
*345 B[24]
*346 B[23]
*347 B[22]
*348 B[21]
*349 B[20]
*350 B[19]
*351 B[18]
*352 B[17]
*353 B[16]
*354 B[15]
*355 B[14]
*356 B[13]
*357 B[12]
*358 B[11]
*359 B[10]
*360 B[9]
*361 B[8]
*362 B[7]
*363 B[6]
*364 B[5]
*365 B[4]
*366 B[3]
*367 B[2]
*368 B[1]
*369 B[0]
*370 Cin
*371 Sum[31]
*372 Sum[30]
*373 Sum[29]
*374 Sum[28]
*375 Sum[27]
*376 Sum[26]
*377 Sum[25]
*378 Sum[24]
*379 Sum[23]
*380 Sum[22]
*381 Sum[21]
*382 Sum[20]
*383 Sum[19]
*384 Sum[18]
*385 Sum[17]
*386 Sum[16]
*387 Sum[15]
*388 Sum[14]
*389 Sum[13]
*390 Sum[12]
*391 Sum[11]
*392 Sum[10]
*393 Sum[9]
*394 Sum[8]
*395 Sum[7]
*396 Sum[6]
*397 Sum[5]
*398 Sum[4]
*399 Sum[3]
*400 Sum[2]
*401 Sum[1]
*402 Sum[0]
*403 Cout
*404 HFSBUF_135_1
*405 HFSBUF_156_2
*406 U101
*407 U102
*408 U103
*409 U105
*410 U106
*411 U111
*412 U115
*413 U116
*414 U117
*415 U126
*416 U128
*417 U131
*418 U136
*419 U140
*420 U148
*421 U152
*422 U153
*423 U157
*424 U158
*425 U160
*426 U163
*427 U164
*428 U165
*429 U166
*430 U167
*431 U168
*432 U169
*433 U171
*434 U173
*435 U174
*436 U177
*437 U181
*438 U182
*439 U183
*440 U184
*441 U185
*442 U186
*443 U187
*444 U188
*445 U189
*446 U190
*447 U191
*448 U194
*449 U195
*450 U197
*451 U198
*452 U199
*453 U200
*454 U201
*455 U203
*456 U204
*457 U205
*458 U207
*459 U208
*460 U209
*461 U211
*462 U214
*463 U215
*464 U223
*465 U224
*466 U225
*467 U227
*468 U229
*469 U232
*470 U234
*471 U235
*472 U237
*473 U238
*474 U242
*475 U243
*476 U246
*477 U249
*478 U250
*479 U251
*480 U253
*481 U258
*482 U259
*483 U260
*484 U262
*485 U267
*486 U268
*487 U269
*488 U271
*489 U273
*490 U276
*491 U277
*492 U278
*493 U284
*494 U285
*495 U286
*496 U287
*497 U288
*498 U290
*499 U292
*500 U293
*501 U294
*502 U295
*503 U298
*504 U299
*505 U300
*506 U301
*507 U302
*508 U303
*509 U304
*510 U305
*511 U306
*512 U307
*513 U308
*514 U309
*515 U310
*516 U311
*517 U312
*518 U97
*519 U98
*520 ZBUF_20_inst_212
*521 ctmTdsLR_1_102
*522 ctmTdsLR_1_108
*523 ctmTdsLR_1_118
*524 ctmTdsLR_1_123
*525 ctmTdsLR_1_128
*526 ctmTdsLR_1_132
*527 ctmTdsLR_1_133
*528 ctmTdsLR_1_135
*529 ctmTdsLR_1_136
*530 ctmTdsLR_1_138
*531 ctmTdsLR_1_140
*532 ctmTdsLR_1_142
*533 ctmTdsLR_1_143
*534 ctmTdsLR_1_144
*535 ctmTdsLR_1_145
*536 ctmTdsLR_1_148
*537 ctmTdsLR_1_149
*538 ctmTdsLR_1_152
*539 ctmTdsLR_1_155
*540 ctmTdsLR_1_158
*541 ctmTdsLR_1_160
*542 ctmTdsLR_1_162
*543 ctmTdsLR_1_164
*544 ctmTdsLR_1_166
*545 ctmTdsLR_1_167
*546 ctmTdsLR_1_170
*547 ctmTdsLR_1_174
*548 ctmTdsLR_1_175
*549 ctmTdsLR_1_177
*550 ctmTdsLR_1_179
*551 ctmTdsLR_1_181
*552 ctmTdsLR_1_182
*553 ctmTdsLR_1_185
*554 ctmTdsLR_1_187
*555 ctmTdsLR_1_190
*556 ctmTdsLR_1_193
*557 ctmTdsLR_1_194
*558 ctmTdsLR_1_195
*559 ctmTdsLR_1_196
*560 ctmTdsLR_1_197
*561 ctmTdsLR_1_198
*562 ctmTdsLR_1_199
*563 ctmTdsLR_1_201
*564 ctmTdsLR_1_205
*565 ctmTdsLR_1_208
*566 ctmTdsLR_1_210
*567 ctmTdsLR_1_35
*568 ctmTdsLR_1_83
*569 ctmTdsLR_1_90
*570 ctmTdsLR_1_92
*571 ctmTdsLR_1_93
*572 ctmTdsLR_1_97
*573 ctmTdsLR_2_106
*574 ctmTdsLR_2_120
*575 ctmTdsLR_2_129
*576 ctmTdsLR_2_134
*577 ctmTdsLR_2_137
*578 ctmTdsLR_2_139
*579 ctmTdsLR_2_141
*580 ctmTdsLR_2_150
*581 ctmTdsLR_2_153
*582 ctmTdsLR_2_156
*583 ctmTdsLR_2_159
*584 ctmTdsLR_2_161
*585 ctmTdsLR_2_165
*586 ctmTdsLR_2_168
*587 ctmTdsLR_2_176
*588 ctmTdsLR_2_178
*589 ctmTdsLR_2_180
*590 ctmTdsLR_2_183
*591 ctmTdsLR_2_186
*592 ctmTdsLR_2_188
*593 ctmTdsLR_2_191
*594 ctmTdsLR_2_200
*595 ctmTdsLR_2_202
*596 ctmTdsLR_2_206
*597 ctmTdsLR_2_209
*598 ctmTdsLR_2_211
*599 ctmTdsLR_2_25
*600 ctmTdsLR_2_36
*601 ctmTdsLR_2_44
*602 ctmTdsLR_2_48
*603 ctmTdsLR_2_58
*604 ctmTdsLR_2_81
*605 ctmTdsLR_2_98
*606 ctmTdsLR_3_110
*607 ctmTdsLR_3_114
*608 ctmTdsLR_3_151
*609 ctmTdsLR_3_154
*610 ctmTdsLR_3_157
*611 ctmTdsLR_3_189
*612 ctmTdsLR_3_207
*613 ctmTdsLR_3_26
*614 ctmTdsLR_3_37
*615 ctmTdsLR_3_45
*616 ctmTdsLR_3_55
*617 ctmTdsLR_3_82
*618 ctmTdsLR_3_96
*619 ctmTdsLR_4_111
*620 ctmTdsLR_4_122
*621 ctmTdsLR_4_27
*622 ctmTdsLR_4_50
*623 ctmTdsLR_5_51
*624 ctmTdsLR_6_52
*625 ropt_h_inst_213
*626 ropt_h_inst_214
*627 ropt_h_inst_215
*628 ropt_h_inst_216
*629 ropt_h_inst_217
*630 ropt_h_inst_218
*631 ropt_h_inst_219
*632 ropt_h_inst_220
*633 ropt_h_inst_221
*634 ropt_h_inst_222
*635 ropt_h_inst_223
*636 ropt_h_inst_224
*637 ropt_h_inst_225
*638 ropt_h_inst_226
*639 ropt_h_inst_227
*1 A[31]
*2 A[30]
*3 A[29]
*4 A[28]
*5 A[27]
*6 A[26]
*7 A[25]
*8 A[24]
*9 A[23]
*10 A[22]
*11 A[21]
*12 A[20]
*13 A[19]
*14 A[18]
*15 A[17]
*16 A[16]
*17 A[15]
*18 A[14]
*19 A[13]
*20 A[12]
*21 A[11]
*22 A[10]
*23 A[9]
*24 A[8]
*25 A[7]
*26 A[6]
*27 A[5]
*28 A[4]
*29 A[3]
*30 A[2]
*31 A[1]
*32 A[0]
*33 B[31]
*34 B[30]
*35 B[29]
*36 B[28]
*37 B[27]
*38 B[26]
*39 B[25]
*40 B[24]
*41 B[23]
*42 B[22]
*43 B[21]
*44 B[20]
*45 B[19]
*46 B[18]
*47 B[17]
*48 B[16]
*49 B[15]
*50 B[14]
*51 B[13]
*52 B[12]
*53 B[11]
*54 B[10]
*55 B[9]
*56 B[8]
*57 B[7]
*58 B[6]
*59 B[5]
*60 B[4]
*61 B[3]
*62 B[2]
*63 B[1]
*64 B[0]
*65 Cin
*66 Sum[31]
*67 Sum[30]
*68 Sum[29]
*69 Sum[28]
*70 Sum[27]
*71 Sum[26]
*72 Sum[25]
*73 Sum[24]
*74 Sum[23]
*75 Sum[22]
*76 Sum[21]
*77 Sum[20]
*78 Sum[19]
*79 Sum[18]
*80 Sum[17]
*81 Sum[16]
*82 Sum[15]
*83 Sum[14]
*84 Sum[13]
*85 Sum[12]
*86 Sum[11]
*87 Sum[10]
*88 Sum[9]
*89 Sum[8]
*90 Sum[7]
*91 Sum[6]
*92 Sum[5]
*93 Sum[4]
*94 Sum[3]
*95 Sum[2]
*96 Sum[1]
*97 Sum[0]
*98 Cout
*102 HFSNET_1
*103 HFSNET_2
*104 ZBUF_20_6
*105 ZBUF_2_2
*106 n115
*107 n131
*108 n132
*109 n136
*110 n138
*111 n139
*112 n140
*113 n141
*114 n146
*115 n147
*116 n148
*117 n149
*118 n152
*119 n153
*120 n154
*121 n157
*122 n158
*123 n159
*124 n160
*125 n161
*126 n169
*127 n170
*128 n171
*129 n172
*130 n174
*131 n175
*132 n176
*133 n177
*134 n179
*135 n180
*136 n181
*137 n182
*138 n186
*139 n188
*140 n189
*141 n191
*142 n192
*143 n195
*144 n196
*145 n197
*146 n198
*147 n199
*148 n200
*149 n201
*150 n202
*151 n203
*152 n204
*153 n205
*154 n207
*155 n208
*156 n211
*157 n212
*158 n213
*159 n214
*160 n215
*161 n216
*162 n217
*163 n218
*164 n219
*165 n220
*166 n223
*167 n226
*168 n227
*169 n228
*170 n229
*171 n230
*172 n231
*173 n232
*174 n233
*175 n234
*176 n235
*177 n237
*178 n239
*179 n240
*180 n241
*181 n242
*182 n243
*183 n245
*184 n247
*185 n248
*186 n249
*187 n252
*188 n253
*189 n254
*190 n255
*191 n256
*192 n257
*193 n258
*194 n259
*195 n260
*196 n261
*197 n262
*198 n263
*199 n264
*200 n266
*201 n267
*202 n268
*203 n269
*204 n270
*205 n271
*206 n274
*207 n275
*208 n276
*209 n277
*210 n278
*211 n279
*212 n280
*213 n281
*214 n282
*215 n283
*216 n284
*217 n285
*218 n286
*219 n287
*220 n288
*221 n289
*222 n290
*223 n291
*224 n292
*225 n293
*226 n294
*227 n295
*228 n296
*229 n297
*230 n298
*231 popt_net_10
*232 popt_net_11
*233 popt_net_13
*234 popt_net_14
*235 popt_net_15
*236 popt_net_17
*237 popt_net_18
*238 popt_net_19
*239 popt_net_20
*240 popt_net_23
*241 popt_net_24
*242 popt_net_3
*243 popt_net_33
*244 popt_net_4
*245 popt_net_42
*246 popt_net_43
*247 popt_net_44
*248 popt_net_46
*249 popt_net_48
*250 popt_net_49
*251 popt_net_5
*252 popt_net_51
*253 popt_net_52
*254 popt_net_53
*255 popt_net_54
*256 popt_net_58
*257 popt_net_59
*258 popt_net_64
*259 popt_net_66
*260 popt_net_67
*261 ropt_net_100
*262 ropt_net_101
*263 ropt_net_102
*264 ropt_net_103
*265 ropt_net_104
*266 ropt_net_105
*267 ropt_net_106
*268 ropt_net_107
*269 ropt_net_108
*270 ropt_net_109
*271 ropt_net_110
*272 ropt_net_111
*273 ropt_net_112
*274 ropt_net_113
*275 ropt_net_99
*276 tmp_net68
*277 tmp_net69
*278 tmp_net70
*279 tmp_net71
*280 tmp_net72
*281 tmp_net73
*282 tmp_net74
*283 tmp_net75
*284 tmp_net76
*285 tmp_net77
*286 tmp_net78
*287 tmp_net79
*288 tmp_net80
*289 tmp_net81
*290 tmp_net82
*291 tmp_net83
*292 tmp_net85
*293 tmp_net86
*294 tmp_net87
*295 tmp_net88
*296 tmp_net89
*297 tmp_net90
*298 tmp_net91
*299 tmp_net92
*300 tmp_net93
*301 tmp_net94
*302 tmp_net95
*303 tmp_net96
*304 tmp_net97
*305 tmp_net98

*PORTS

*306 I
*307 I
*308 I
*309 I
*310 I
*311 I
*312 I
*313 I
*314 I
*315 I
*316 I
*317 I
*318 I
*319 I
*320 I
*321 I
*322 I
*323 I
*324 I
*325 I
*326 I
*327 I
*328 I
*329 I
*330 I
*331 I
*332 I
*333 I
*334 I
*335 I
*336 I
*337 I
*338 I
*339 I
*340 I
*341 I
*342 I
*343 I
*344 I
*345 I
*346 I
*347 I
*348 I
*349 I
*350 I
*351 I
*352 I
*353 I
*354 I
*355 I
*356 I
*357 I
*358 I
*359 I
*360 I
*361 I
*362 I
*363 I
*364 I
*365 I
*366 I
*367 I
*368 I
*369 I
*370 I
*371 O
*372 O
*373 O
*374 O
*375 O
*376 O
*377 O
*378 O
*379 O
*380 O
*381 O
*382 O
*383 O
*384 O
*385 O
*386 O
*387 O
*388 O
*389 O
*390 O
*391 O
*392 O
*393 O
*394 O
*395 O
*396 O
*397 O
*398 O
*399 O
*400 O
*401 O
*402 O
*403 O

*D_NET *1 3.5452

*CONN
*P *306 I *C 0.286 38.440
*I *472:A2 I *C 33.576 30.789
*I *520:A I *C 32.056 30.840

*CAP
1 *306 0.937653
2 *472:A2 0.122078
3 *520:A 0.00136024
4 *1:3 0.0279062
5 *1:4 2.4562
6 *1:6 0.0

*RES
1 *306 *1:4 71.1821
2 *472:A2 *1:4 2.84464
3 *472:A2 *1:6 0.001
4 *472:A2 *1:3 0.001
5 *520:A *1:4 1.17321
6 *520:A *1:5 0.001
*END

*D_NET *2 1.78885

*CONN
*P *307 I *C 0.286 29.624
*I *470:A2 I *C 12.904 30.789
*I *471:A2 I *C 14.335 31.144
*I *558:A2 I *C 16.400 29.320

*CAP
1 *307 0.0448417
2 *470:A2 0.189242
3 *471:A2 0.021193
4 *558:A2 0.055846
5 *2:4 0.0279108
6 *2:7 0.0753792
7 *2:8 1.37443

*RES
1 *307 *2:8 25.6482
2 *470:A2 *2:5 0.001
3 *470:A2 *2:4 0.001
4 *470:A2 *2:7 3.01786
5 *471:A2 *2:7 1.43571
6 *558:A2 *2:6 0.001
7 *558:A2 *2:8 5.17857
8 *2:7 *2:8 2.475
*END

*D_NET *3 1.44699

*CONN
*P *308 I *C 0.286 35.096
*I *469:A2 I *C 7.280 30.789
*I *559:A2 I *C 8.952 29.320
*I *624:A2 I *C 6.064 30.840

*CAP
1 *308 0.172743
2 *469:A2 0.00917537
3 *559:A2 0.348114
4 *3:4 0.0279108
5 *3:6 0.169304
6 *3:9 0.71974

*RES
1 *308 *3:9 16.7661
2 *469:A2 *3:6 2.475
3 *469:A2 *3:7 0.001
4 *469:A2 *3:4 0.001
5 *559:A2 *3:9 11.4661
6 *559:A2 *3:8 0.001
7 *624:A2 *3:6 1.0
8 *624:A2 *3:5 0.001
9 *3:6 *3:9 1.66071
*END

*D_NET *4 1.2397

*CONN
*P *309 I *C 0.286 26.888
*I *468:A2 I *C 5.760 26.027
*I *561:A2 I *C 9.256 25.976
*I *567:A2 I *C 7.888 27.344
*I *623:A2 I *C 6.064 27.648

*CAP
1 *309 0.109955
2 *561:A2 0.317539
3 *567:A2 0.136037
4 *623:A2 0.00958679
5 *4:5 0.0331462
6 *4:6 0.355614
7 *4:7 0.166608
8 *4:8 0.111217
9 *4:12 0.0

*RES
1 *309 *4:6 11.4679
2 *468:A2 *4:7 0.673214
3 *468:A2 *4:9 0.001
4 *468:A2 *4:5 0.086646
5 *561:A2 *4:7 6.87321
6 *561:A2 *4:12 0.001
7 *567:A2 *4:8 3.8875
8 *567:A2 *4:11 0.001
9 *623:A2 *4:8 1.71607
10 *623:A2 *4:10 0.001
11 *4:6 *4:8 0.542857
12 *4:6 *4:7 2.44286
*END

*D_NET *5 2.7898

*CONN
*P *310 I *C 0.286 21.112
*I *467:A2 I *C 17.616 27.445
*I *521:A2 I *C 17.768 25.672
*I *523:A2 I *C 23.696 27.496
*I *600:A2 I *C 16.248 25.976

*CAP
1 *310 0.344009
2 *467:A2 0.00877287
3 *523:A2 0.653288
4 *600:A2 0.0360841
5 *5:5 0.0261032
6 *5:9 0.212977
7 *5:11 1.33217
8 *5:12 0.1764

*RES
1 *310 *5:11 39.5661
2 *467:A2 *5:12 1.20714
3 *467:A2 *5:7 0.001
4 *467:A2 *5:5 0.001
5 *521:A2 *5:9 1.0
6 *521:A2 *5:8 0.001
7 *523:A2 *5:12 12.8357
8 *523:A2 *5:10 0.001
9 *600:A2 *5:9 4.10536
10 *600:A2 *5:6 0.001
11 *5:9 *5:11 0.5
12 *5:11 *5:12 2.74643
*END

*D_NET *6 2.36293

*CONN
*P *311 I *C 0.286 17.768
*I *466:A2 I *C 15.488 24.101
*I *546:A3 I *C 15.001 25.824
*I *555:A2 I *C 15.032 22.328
*I *560:A1 I *C 17.920 22.784

*CAP
1 *311 0.396895
2 *466:A2 0.0224065
3 *546:A3 0.0730301
4 *560:A1 0.134936
5 *6:5 0.0246705
6 *6:7 1.49621
7 *6:10 0.214785

*RES
1 *311 *6:7 35.0732
2 *466:A2 *6:10 1.61786
3 *466:A2 *6:8 0.001
4 *466:A2 *6:5 0.001
5 *546:A3 *6:10 4.27536
6 *555:A2 *6:7 1.0
7 *555:A2 *6:6 0.001
8 *560:A1 *6:7 7.38214
9 *560:A1 *6:9 0.001
10 *6:7 *6:10 3.56071
*END

*D_NET *7 2.13361

*CONN
*P *312 I *C 0.286 18.984
*I *407:A2 I *C 10.776 22.328
*I *408:A2 I *C 9.408 22.683
*I *592:A3 I *C 13.391 25.824
*I *604:A2 I *C 12.752 22.632
*I *626:A I *C 12.752 19.288

*CAP
1 *312 0.0583658
2 *407:A2 0.0733017
3 *408:A2 0.000503989
4 *592:A3 0.137215
5 *626:A 0.0132397
6 *7:6 0.0299058
7 *7:7 0.117051
8 *7:8 0.304438
9 *7:13 1.1052
10 *7:14 0.294392

*RES
1 *312 *7:13 22.1946
2 *407:A2 *7:7 2.80179
3 *407:A2 *7:10 0.001
4 *408:A2 *7:7 1.4875
5 *408:A2 *7:9 0.001
6 *408:A2 *7:6 0.086646
7 *592:A3 *7:8 9.19321
8 *604:A2 *7:12 0.001
9 *604:A2 *7:8 1.345
10 *626:A *7:13 2.11786
11 *626:A *7:11 0.001
12 *7:7 *7:14 3.97321
13 *7:8 *7:14 0.395536
14 *7:13 *7:14 6.275
*END

*D_NET *8 1.28475

*CONN
*P *313 I *C 0.286 19.896
*I *464:A2 I *C 5.912 19.339
*I *465:A2 I *C 6.216 21.112
*I *556:A1 I *C 8.344 20.656
*I *620:A2 I *C 7.128 22.632

*CAP
1 *313 0.0446087
2 *464:A2 0.0394753
3 *556:A1 0.0654918
4 *620:A2 0.0528476
5 *8:5 0.031943
6 *8:8 0.212378
7 *8:11 0.345472
8 *8:12 0.492535

*RES
1 *313 *8:12 10.4482
2 *464:A2 *8:6 0.001
3 *464:A2 *8:5 0.086646
4 *464:A2 *8:12 1.77149
5 *465:A2 *8:8 1.0
6 *465:A2 *8:7 0.001
7 *556:A1 *8:10 0.001
8 *556:A1 *8:11 4.09286
9 *620:A2 *8:9 0.001
10 *620:A2 *8:11 4.01786
11 *8:8 *8:12 2.82143
12 *8:8 *8:11 1.93214
*END

*D_NET *9 2.33564

*CONN
*P *314 I *C 0.286 17.160
*I *547:A4 I *C 6.672 32.512
*I *547:A6 I *C 7.280 32.208
*I *548:A I *C 5.249 30.840
*I *587:A4 I *C 7.432 34.032
*I *639:A I *C 8.648 36.008

*CAP
1 *314 0.912129
2 *547:A6 0.0277723
3 *548:A 0.0355623
4 *587:A4 0.0121938
5 *639:A 0.182893
6 *9:7 0.167732
7 *9:11 0.560442
8 *9:12 0.14575
9 *9:13 0.291163

*RES
1 *314 *9:11 33.0518
2 *547:A4 *9:7 1.0
3 *547:A4 *9:6 0.001
4 *547:A6 *9:8 0.001
5 *547:A6 *9:12 2.01071
6 *548:A *9:11 1.938
7 *587:A4 *9:9 0.001
8 *587:A4 *9:13 1.5
9 *639:A *9:10 0.001
10 *639:A *9:13 9.58571
11 *9:7 *9:11 6.07857
12 *9:7 *9:12 1.66071
13 *9:12 *9:13 2.51786
*END

*D_NET *10 2.97216

*CONN
*P *315 I *C 0.286 8.040
*I *518:A1 I *C 12.144 32.816
*I *573:A1 I *C 9.560 32.512
*I *585:A3 I *C 10.320 36.616

*CAP
1 *315 0.625664
2 *518:A1 0.0261593
3 *573:A1 0.0103828
4 *585:A3 0.0285778
5 *10:7 1.69182
6 *10:8 0.589549

*RES
1 *315 *10:7 59.9232
2 *518:A1 *10:8 4.28929
3 *518:A1 *10:6 0.001
4 *573:A1 *10:7 1.93571
5 *573:A1 *10:4 0.001
6 *585:A3 *10:8 8.38845
7 *585:A3 *10:5 0.001
8 *10:7 *10:8 2.5625
*END

*D_NET *11 3.34213

*CONN
*P *316 I *C 0.286 7.432
*I *543:A1 I *C 14.576 34.336
*I *575:A2 I *C 12.904 35.248
*I *637:A I *C 13.609 36.023

*CAP
1 *316 1.19804
2 *543:A1 0.0507751
3 *575:A2 0.0336574
4 *637:A 0.129411
5 *11:5 0.0990749
6 *11:7 1.83117

*RES
1 *316 *11:7 72.9839
2 *543:A1 *11:7 2.47679
3 *543:A1 *11:6 0.001
4 *575:A2 *11:5 1.88929
5 *575:A2 *11:4 0.001
6 *637:A *11:5 2.604
7 *11:5 *11:7 2.50714
*END

*D_NET *12 2.00944

*CONN
*P *317 I *C 0.286 33.272
*I *463:A2 I *C 16.552 32.664
*I *568:A1 I *C 18.376 31.144
*I *632:A I *C 19.440 32.664

*CAP
1 *317 0.0796164
2 *463:A2 0.013895
3 *568:A1 0.102957
4 *632:A 0.0243316
5 *12:7 1.54064
6 *12:8 0.248001

*RES
1 *317 *12:7 29.7946
2 *463:A2 *12:7 1.84643
3 *463:A2 *12:4 0.001
4 *568:A1 *12:8 4.36429
5 *568:A1 *12:5 0.001
6 *632:A *12:8 2.68845
7 *632:A *12:6 0.001
8 *12:7 *12:8 7.12143
*END

*D_NET *13 2.19805

*CONN
*P *318 I *C 0.286 3.176
*I *439:A1 I *C 19.744 14.044
*I *461:A2 I *C 19.896 12.600

*CAP
1 *318 0.662773
2 *439:A1 0.0638846
3 *461:A2 0.0137516
4 *13:3 0.0259686
5 *13:6 1.43167

*RES
1 *318 *13:6 50.9661
2 *439:A1 *13:6 3.86429
3 *439:A1 *13:4 0.001
4 *439:A1 *13:3 0.001
5 *461:A2 *13:6 2.38929
6 *461:A2 *13:5 0.001
*END

*D_NET *14 1.72163

*CONN
*P *319 I *C 0.286 32.360
*I *440:A1 I *C 21.209 32.512
*I *460:A2 I *C 20.996 30.840

*CAP
1 *319 0.0774554
2 *440:A1 0.0516426
3 *460:A2 0.128624
4 *14:3 1.46391

*RES
1 *319 *14:3 37.0482
2 *440:A1 *14:3 2.587
3 *460:A2 *14:3 4.3522
*END

*D_NET *15 3.79938

*CONN
*P *320 I *C 0.286 8.648
*I *441:A1 I *C 25.551 34.132
*I *458:A2 I *C 24.760 36.008

*CAP
1 *320 1.11918
2 *441:A1 0.0653799
3 *458:A2 0.0690445
4 *15:4 2.54578

*RES
1 *320 *15:4 91.1375
2 *441:A1 *15:4 2.242
3 *458:A2 *15:4 4.90714
4 *458:A2 *15:3 0.001
*END

*D_NET *16 3.82602

*CONN
*P *321 I *C 0.286 15.944
*I *442:A1 I *C 29.223 30.992
*I *457:A2 I *C 29.964 30.840

*CAP
1 *321 1.49477
2 *457:A2 0.0523954
3 *16:3 2.27885

*RES
1 *321 *16:3 80.2471
2 *442:A1 *16:3 0.194
3 *457:A2 *16:3 1.46
*END

*D_NET *17 2.9243

*CONN
*P *322 I *C 0.286 6.824
*I *443:A1 I *C 18.797 27.344
*I *455:A2 I *C 18.782 25.976

*CAP
1 *322 0.939356
2 *443:A1 0.0145252
3 *17:3 1.80763
4 *17:4 0.16279

*RES
1 *322 *17:3 67.9676
2 *443:A1 *17:4 0.001
3 *455:A2 *17:3 0.812
4 *17:3 *17:4 3.578
*END

*D_NET *18 2.94837

*CONN
*P *323 I *C 0.286 18.376
*I *444:A1 I *C 24.097 22.480
*I *454:A2 I *C 24.102 24.152

*CAP
1 *323 1.13461
2 *454:A2 0.205543
3 *18:3 1.60822

*RES
1 *323 *18:3 50.6614
2 *444:A1 *18:3 0.802
3 *454:A2 *18:3 4.156
*END

*D_NET *19 3.1545

*CONN
*P *324 I *C 0.286 27.800
*I *445:A1 I *C 22.055 20.756
*I *452:A2 I *C 23.884 20.808

*CAP
1 *324 0.584451
2 *445:A1 0.0311428
3 *452:A2 0.194217
4 *19:3 2.34469

*RES
1 *324 *19:3 50.825
2 *445:A1 *19:3 2.00986
3 *452:A2 *19:3 5.23071
*END

*D_NET *20 2.52791

*CONN
*P *325 I *C 0.286 2.568
*I *446:A1 I *C 21.837 13.968
*I *451:A2 I *C 23.646 14.120

*CAP
1 *325 0.82779
2 *446:A1 0.0138454
3 *451:A2 0.0848915
4 *20:3 1.5212
5 *20:4 0.080177

*RES
1 *325 *20:3 58.3268
2 *446:A1 *20:4 0.001
3 *451:A2 *20:3 5.40329
4 *20:3 *20:4 2.036
*END

*D_NET *21 1.65239

*CONN
*P *326 I *C 0.286 20.504
*I *411:A I *C 14.065 15.957
*I *631:A I *C 11.080 19.288

*CAP
1 *326 0.115258
2 *411:A 0.368593
3 *631:A 0.010985
4 *21:4 1.15755

*RES
1 *326 *21:4 21.1982
2 *411:A *21:4 13.0307
3 *631:A *21:4 1.84643
4 *631:A *21:3 0.001
*END

*D_NET *22 1.87453

*CONN
*P *327 I *C 0.286 39.352
*I *437:A1 I *C 15.792 30.840
*I *535:A1 I *C 15.847 34.488

*CAP
1 *327 0.247314
2 *437:A1 0.322564
3 *535:A1 0.0648193
4 *22:4 1.23983

*RES
1 *327 *22:4 36.0375
2 *437:A1 *22:4 8.38845
3 *437:A1 *22:3 0.001
4 *535:A1 *22:4 2.80986
*END

*D_NET *23 2.48204

*CONN
*P *328 I *C 0.286 31.752
*I *420:A1 I *C 13.761 20.808
*I *526:A1 I *C 11.895 21.112

*CAP
1 *328 1.07756
2 *420:A1 0.0586678
3 *526:A1 0.020776
4 *23:3 1.32504

*RES
1 *328 *23:3 41.2161
2 *420:A1 *23:3 4.48129
3 *526:A1 *23:3 1.134
*END

*D_NET *24 1.70319

*CONN
*P *329 I *C 0.286 13.208
*I *409:A1 I *C 13.512 12.752
*I *599:A1 I *C 18.017 15.792
*I *621:A1 I *C 17.616 12.448

*CAP
1 *329 0.0379317
2 *409:A1 0.0357798
3 *599:A1 0.117868
4 *621:A1 0.136997
5 *24:6 0.504422
6 *24:7 0.870197

*RES
1 *329 *24:7 24.0196
2 *409:A1 *24:4 0.001
3 *409:A1 *24:7 2.11786
4 *599:A1 *24:6 4.53131
5 *621:A1 *24:5 0.001
6 *621:A1 *24:6 4.85988
7 *24:6 *24:7 10.2295
*END

*D_NET *25 3.60472

*CONN
*P *330 I *C 0.286 5.304
*I *426:A2 I *C 34.032 19.339
*I *435:A1 I *C 32.816 18.984

*CAP
1 *330 1.36552
2 *426:A2 0.120802
3 *25:3 0.0331462
4 *25:5 2.08525
5 *25:6 0.0

*RES
1 *330 *25:5 83.0268
2 *426:A2 *25:5 3.0625
3 *426:A2 *25:6 0.001
4 *426:A2 *25:3 0.086646
5 *435:A1 *25:5 1.0
6 *435:A1 *25:4 0.001
*END

*D_NET *26 2.80325

*CONN
*P *331 I *C 0.286 29.016
*I *427:A2 I *C 35.066 26.128
*I *434:A1 I *C 33.576 25.672

*CAP
1 *331 0.726566
2 *427:A2 0.031613
3 *434:A1 0.0252986
4 *26:3 0.0315419
5 *26:6 1.98823

*RES
1 *331 *26:6 64.8536
2 *427:A2 *26:6 3.46429
3 *427:A2 *26:5 0.001
4 *427:A2 *26:3 0.0821839
5 *434:A1 *26:6 2.01071
6 *434:A1 *26:4 0.001
*END

*D_NET *27 2.43032

*CONN
*P *332 I *C 0.286 33.880
*I *429:A1 I *C 27.593 34.336
*I *433:A2 I *C 29.204 32.664

*CAP
1 *332 0.422942
2 *429:A1 0.0558478
3 *433:A2 0.129959
4 *27:3 1.82157

*RES
1 *332 *27:3 48.4482
2 *429:A1 *27:3 2.85986
3 *433:A2 *27:3 6.79321
*END

*D_NET *28 3.48537

*CONN
*P *333 I *C 0.286 34.488
*I *430:A1 I *C 31.241 34.336
*I *524:A2 I *C 32.512 36.008

*CAP
1 *333 1.19986
2 *430:A1 0.100894
3 *524:A2 0.0944604
4 *28:3 2.09016
5 *28:4 0.0

*RES
1 *333 *28:3 56.4268
2 *430:A1 *28:3 2.3
3 *524:A2 *28:3 6.34107
4 *524:A2 *28:4 0.001
*END

*D_NET *29 4.71325

*CONN
*P *334 I *C 0.286 39.960
*I *404:A I *C 7.432 36.008
*I *532:A1 I *C 31.144 20.960

*CAP
1 *334 0.187623
2 *404:A 0.0246909
3 *532:A1 2.55661
4 *29:5 1.94433

*RES
1 *334 *29:5 21.1089
2 *404:A *29:5 2.51167
3 *404:A *29:3 0.001
4 *532:A1 *29:5 70.3661
5 *532:A1 *29:4 0.001
*END

*D_NET *30 3.14813

*CONN
*P *335 I *C 0.286 4.088
*I *424:A1 I *C 30.536 10.624
*I *533:A1 I *C 32.816 12.296
*I *545:A I *C 26.529 9.268

*CAP
1 *335 0.587698
2 *533:A1 0.1294
3 *545:A 0.0609043
4 *30:5 0.423647
5 *30:7 1.94648

*RES
1 *335 *30:7 56.1679
2 *424:A1 *30:5 1.0
3 *424:A1 *30:4 0.001
4 *533:A1 *30:5 8.46786
5 *533:A1 *30:6 0.001
6 *545:A *30:7 2.18717
7 *30:5 *30:7 9.87857
*END

*D_NET *31 1.9982

*CONN
*P *336 I *C 0.286 6.216
*I *422:A1 I *C 24.031 9.241
*I *534:A1 I *C 25.824 8.952

*CAP
1 *336 0.630514
2 *422:A1 0.0552366
3 *534:A1 0.00491453
4 *31:3 1.30754
5 *31:4 0.0

*RES
1 *336 *31:3 47.4696
2 *422:A1 *31:3 1.742
3 *534:A1 *31:4 0.001
4 *534:A1 *31:3 4.33214
*END

*D_NET *32 2.49607

*CONN
*P *337 I *C 0.286 1.960
*I *421:A2 I *C 29.351 5.912
*I *425:A2 I *C 27.770 6.064
*I *607:A2 I *C 28.596 7.432

*CAP
1 *337 0.9234
2 *421:A2 0.063989
3 *425:A2 0.0130193
4 *607:A2 0.058758
5 *32:4 0.0309305
6 *32:5 0.125702
7 *32:7 1.28027

*RES
1 *337 *32:7 59.9554
2 *421:A2 *32:5 2.245
3 *425:A2 *32:5 2.08393
4 *425:A2 *32:6 0.001
5 *425:A2 *32:4 0.0821839
6 *607:A2 *32:7 2.35
7 *32:5 *32:7 1.30357
*END

*D_NET *33 0.99847

*CONN
*P *338 I *C 36.616 41.482
*I *628:A I *C 34.336 32.749

*CAP
1 *338 0.218911
2 *33:2 0.779559

*RES
1 *338 *33:2 19.9375
2 *628:A *33:2 0.986
*END

*D_NET *34 1.5516

*CONN
*P *339 I *C 11.688 41.482
*I *470:A1 I *C 12.600 30.992
*I *471:A1 I *C 14.107 30.840
*I *558:A1 I *C 16.704 29.472

*CAP
1 *339 0.0998364
2 *471:A1 0.0327843
3 *558:A1 0.179968
4 *34:5 0.870339
5 *34:7 0.36867

*RES
1 *339 *34:5 20.5661
2 *470:A1 *34:5 1.0
3 *470:A1 *34:4 0.001
4 *471:A1 *34:7 1.60393
5 *558:A1 *34:7 9.47857
6 *558:A1 *34:6 0.001
7 *34:5 *34:7 1.975
*END

*D_NET *35 1.70269

*CONN
*P *340 I *C 13.512 41.482
*I *469:A1 I *C 6.976 30.992
*I *559:A1 I *C 10.320 29.463
*I *624:A1 I *C 6.247 31.144

*CAP
1 *340 0.242194
2 *559:A1 0.168484
3 *624:A1 0.0833114
4 *35:5 0.355477
5 *35:6 0.853221

*RES
1 *340 *35:6 24.6696
2 *469:A1 *35:5 1.0
3 *469:A1 *35:4 0.001
4 *559:A1 *35:6 4.76445
5 *624:A1 *35:5 2.41821
6 *35:5 *35:6 6.54643
*END

*D_NET *36 2.09307

*CONN
*P *341 I *C 2.568 41.482
*I *468:A1 I *C 5.401 25.824
*I *561:A1 I *C 9.560 26.128
*I *567:A1 I *C 7.736 27.648
*I *623:A1 I *C 5.912 27.496

*CAP
1 *341 0.19068
2 *561:A1 0.374538
3 *567:A1 0.144917
4 *623:A1 0.00150142
5 *36:5 0.314364
6 *36:6 0.186537
7 *36:7 0.880535
8 *36:10 0.0

*RES
1 *341 *36:7 28.7089
2 *468:A1 *36:5 0.802
3 *561:A1 *36:5 11.5748
4 *561:A1 *36:10 0.001
5 *567:A1 *36:6 4.43036
6 *567:A1 *36:9 0.001
7 *623:A1 *36:6 1.48929
8 *623:A1 *36:8 0.001
9 *36:5 *36:7 5.146
10 *36:6 *36:7 1.80179
*END

*D_NET *37 3.27201

*CONN
*P *342 I *C 32.968 41.482
*I *467:A1 I *C 17.975 27.648
*I *521:A1 I *C 17.920 25.976
*I *600:A1 I *C 16.151 25.824
*I *633:A I *C 24.304 29.320

*CAP
1 *342 0.411142
2 *467:A1 0.0338253
3 *600:A1 0.0555398
4 *633:A 0.0442623
5 *37:6 0.232377
6 *37:8 0.858305
7 *37:9 1.63656

*RES
1 *342 *37:9 36.3089
2 *467:A1 *37:8 2.242
3 *521:A1 *37:6 1.0
4 *521:A1 *37:5 0.001
5 *600:A1 *37:6 4.32193
6 *633:A *37:7 0.001
7 *633:A *37:9 2.91702
8 *37:6 *37:8 4.17595
9 *37:8 *37:9 14.7643
*END

*D_NET *38 2.91949

*CONN
*P *343 I *C 29.928 41.482
*I *466:A1 I *C 15.792 24.304
*I *546:A2 I *C 14.728 25.824
*I *555:A1 I *C 15.184 22.632
*I *560:A2 I *C 17.616 22.632

*CAP
1 *343 0.740884
2 *466:A1 0.0101832
3 *546:A2 0.089251
4 *555:A1 0.223102
5 *560:A2 6.56705e-05
6 *38:5 0.209371
7 *38:10 0.317345
8 *38:11 1.32929

*RES
1 *343 *38:11 54.3182
2 *466:A1 *38:8 0.001
3 *466:A1 *38:5 1.48929
4 *546:A2 *38:6 0.001
5 *546:A2 *38:5 5.77679
6 *555:A1 *38:7 0.001
7 *555:A1 *38:10 4.33214
8 *560:A2 *38:9 0.001
9 *560:A2 *38:10 1.61786
10 *38:5 *38:11 2.84464
11 *38:10 *38:11 3.88125
*END

*D_NET *39 2.59813

*CONN
*P *344 I *C 12.600 41.482
*I *407:A1 I *C 10.611 22.632
*I *408:A1 I *C 9.767 22.480
*I *519:A2 I *C 10.168 17.464
*I *592:A2 I *C 13.664 25.824
*I *604:A1 I *C 12.904 22.480

*CAP
1 *344 0.0856778
2 *407:A1 0.0287635
3 *519:A2 0.413398
4 *592:A2 0.018589
5 *39:7 0.0677086
6 *39:8 0.129148
7 *39:10 0.639892
8 *39:12 1.21495

*RES
1 *344 *39:12 28.9482
2 *407:A1 *39:7 0.753833
3 *408:A1 *39:7 1.046
4 *519:A2 *39:8 11.1057
5 *519:A2 *39:6 0.001
6 *592:A2 *39:12 2.11786
7 *592:A2 *39:11 0.001
8 *604:A1 *39:10 1.0
9 *604:A1 *39:9 0.001
10 *39:7 *39:8 1.0
11 *39:8 *39:10 4.46696
12 *39:10 *39:12 6.62143
*END

*D_NET *40 2.42022

*CONN
*P *345 I *C 6.824 41.482
*I *464:A1 I *C 5.553 19.136
*I *465:A1 I *C 6.368 20.808
*I *556:A2 I *C 8.040 20.808
*I *620:A1 I *C 7.280 22.480

*CAP
1 *345 0.0262418
2 *464:A1 0.241486
3 *556:A2 0.000310774
4 *620:A1 0.0331628
5 *40:6 0.232673
6 *40:9 0.33613
7 *40:10 1.55022

*RES
1 *345 *40:10 33.8339
2 *464:A1 *40:6 8.16186
3 *465:A1 *40:6 1.0
4 *465:A1 *40:5 0.001
5 *556:A2 *40:9 2.975
6 *556:A2 *40:8 0.001
7 *620:A1 *40:10 2.11786
8 *620:A1 *40:7 0.001
9 *40:6 *40:9 0.617857
10 *40:9 *40:10 3.28929
*END

*D_NET *41 1.10485

*CONN
*P *346 I *C 7.432 41.482
*I *547:A1 I *C 6.368 32.664
*I *547:A3 I *C 6.976 32.360
*I *630:A I *C 5.608 34.184

*CAP
1 *346 0.168949
2 *547:A1 0.016502
3 *547:A3 0.0367938
4 *630:A 0.0559315
5 *41:7 0.268945
6 *41:8 0.557733

*RES
1 *346 *41:8 15.7125
2 *547:A1 *41:7 1.79917
3 *547:A1 *41:5 0.001
4 *547:A3 *41:7 3.00714
5 *547:A3 *41:6 0.001
6 *630:A *41:8 2.38929
7 *630:A *41:4 0.001
8 *41:7 *41:8 2.51786
*END

*D_NET *42 2.23965

*CONN
*P *347 I *C 26.280 41.482
*I *518:A2 I *C 11.840 32.664
*I *573:A2 I *C 9.864 32.715
*I *585:A4 I *C 10.472 36.160

*CAP
1 *347 0.87619
2 *573:A2 0.000998613
3 *585:A4 0.0877145
4 *42:4 0.0331461
5 *42:5 0.519941
6 *42:9 0.721661

*RES
1 *347 *42:9 35.2679
2 *518:A2 *42:8 0.001
3 *518:A2 *42:5 1.0
4 *573:A2 *42:5 3.88125
5 *573:A2 *42:6 0.001
6 *573:A2 *42:4 0.086646
7 *585:A4 *42:9 3.51786
8 *585:A4 *42:7 0.001
9 *42:5 *42:9 7.39143
*END

*D_NET *43 1.08068

*CONN
*P *348 I *C 17.768 41.482
*I *543:A2 I *C 14.728 34.184
*I *575:A1 I *C 13.056 36.008
*I *629:A I *C 14.880 36.008

*CAP
1 *348 0.267015
2 *543:A2 0.124797
3 *575:A1 0.0053376
4 *43:4 0.228766
5 *43:8 0.454767

*RES
1 *348 *43:8 15.1866
2 *543:A2 *43:4 5.06071
3 *543:A2 *43:6 0.001
4 *575:A1 *43:4 3.83839
5 *575:A1 *43:5 0.001
6 *629:A *43:8 1.0
7 *629:A *43:7 0.001
8 *43:4 *43:8 0.345
*END

*D_NET *44 1.35507

*CONN
*P *349 I *C 16.248 41.482
*I *462:A2 I *C 18.528 32.664
*I *463:A1 I *C 16.704 32.360
*I *638:A I *C 19.592 34.184

*CAP
1 *349 0.287156
2 *462:A2 0.0121631
3 *463:A1 0.225473
4 *638:A 0.0837667
5 *44:7 0.251049
6 *44:8 0.495464

*RES
1 *349 *44:8 17.6125
2 *462:A2 *44:7 1.79917
3 *462:A2 *44:5 0.001
4 *463:A1 *44:7 4.63571
5 *463:A1 *44:4 0.001
6 *638:A *44:8 3.79107
7 *638:A *44:6 0.001
8 *44:7 *44:8 2.24643
*END

*D_NET *45 2.34589

*CONN
*P *350 I *C 19.896 41.482
*I *439:A2 I *C 20.018 13.968
*I *461:A1 I *C 20.048 12.296

*CAP
1 *350 1.49521
2 *439:A2 0.0442507
3 *461:A1 0.09088
4 *45:3 0.0272642
5 *45:6 0.688284

*RES
1 *350 *45:6 49.5768
2 *439:A2 *45:4 0.001
3 *439:A2 *45:3 0.001
4 *439:A2 *45:6 1.57679
5 *461:A1 *45:5 0.001
6 *461:A1 *45:6 4.0456
*END

*D_NET *46 1.91506

*CONN
*P *351 I *C 30.536 41.482
*I *440:A2 I *C 21.568 32.715
*I *460:A1 I *C 21.112 31.144

*CAP
1 *351 0.834774
2 *440:A2 0.015265
3 *460:A1 0.177394
4 *46:3 0.0331461
5 *46:4 0.854476
6 *46:6 0.0

*RES
1 *351 *46:4 31.25
2 *440:A2 *46:4 1.03393
3 *440:A2 *46:6 0.001
4 *440:A2 *46:3 0.086646
5 *460:A1 *46:4 5.85179
6 *460:A1 *46:5 0.001
*END

*D_NET *47 1.26568

*CONN
*P *352 I *C 31.144 41.482
*I *441:A2 I *C 25.794 34.032
*I *458:A1 I *C 24.912 35.704

*CAP
1 *352 0.241933
2 *441:A2 0.159141
3 *458:A1 0.141874
4 *47:3 0.0276882
5 *47:6 0.695041

*RES
1 *352 *47:6 19.5125
2 *441:A2 *47:6 4.46071
3 *441:A2 *47:5 0.001
4 *441:A2 *47:3 0.001
5 *458:A1 *47:6 3.74643
6 *458:A1 *47:4 0.001
*END

*D_NET *48 1.2911

*CONN
*P *353 I *C 32.056 41.482
*I *442:A2 I *C 28.864 30.789
*I *457:A1 I *C 30.080 31.144

*CAP
1 *353 0.163386
2 *442:A2 0.0339417
3 *48:3 0.0246705
4 *48:6 1.0691

*RES
1 *353 *48:6 22.1946
2 *442:A2 *48:6 3.01786
3 *442:A2 *48:4 0.001
4 *442:A2 *48:3 0.001
5 *457:A1 *48:6 1.0
6 *457:A1 *48:5 0.001
*END

*D_NET *49 1.55883

*CONN
*P *354 I *C 16.856 41.482
*I *443:A2 I *C 19.106 27.344
*I *455:A1 I *C 18.984 25.672

*CAP
1 *354 0.309973
2 *443:A2 0.0172217
3 *455:A1 0.120551
4 *49:3 0.0275127
5 *49:6 1.08357

*RES
1 *354 *49:6 28.4054
2 *443:A2 *49:6 1.56429
3 *443:A2 *49:5 0.001
4 *443:A2 *49:3 0.001
5 *455:A1 *49:6 4.63571
6 *455:A1 *49:4 0.001
*END

*D_NET *50 2.05521

*CONN
*P *355 I *C 29.320 41.482
*I *444:A2 I *C 24.456 22.683
*I *454:A1 I *C 24.304 24.456

*CAP
1 *355 0.0300936
2 *444:A2 0.140402
3 *50:3 0.0326494
4 *50:4 1.39154
5 *50:7 0.460522

*RES
1 *355 *50:4 0.001
2 *444:A2 *50:7 4.95179
3 *444:A2 *50:6 0.001
4 *444:A2 *50:3 0.086646
5 *454:A1 *50:5 0.001
6 *454:A1 *50:7 1.29917
7 *50:4 *50:7 40.4714
*END

*D_NET *51 2.29142

*CONN
*P *356 I *C 28.712 41.482
*I *445:A2 I *C 22.298 20.656
*I *452:A1 I *C 24.000 21.112

*CAP
1 *356 1.5462
2 *445:A2 0.187826
3 *51:3 0.0276915
4 *51:6 0.529705

*RES
1 *356 *51:6 44.9946
2 *445:A2 *51:6 5.83843
3 *445:A2 *51:4 0.001