*SPEF "IEEE 1481-1999"
*DESIGN "csla32_nobec_flat"
*DATE "Fri May 22 11:03:54 2026"
*VENDOR "Synopsys Inc."
*PROGRAM "StarRC"
*VERSION "U-2022.12-SP3"
*DESIGN_FLOW "PIN_CAP NONE" "NAME_SCOPE LOCAL"
*DIVIDER /
*DELIMITER :
*BUS_DELIMITER []
*T_UNIT 1.0 NS
*C_UNIT 1.0 FF
*R_UNIT 1.0 OHM
*L_UNIT 1.0 HENRY

// COMMENTS

// CORNER_NAME 
// OPERATING_TEMPERATURE 25
// GLOBAL_TEMPERATURE 25
// TCAD_GRD_FILE /home2/synopsys/libraries/SAED32_EDK/tech/starrc/nominal/saed32nm_1p9m_nominal.nxtgrd
//   TCAD_TIME_STAMP Wed Mar 16 14:34:54 2011
//   TCADGRD_VERSION 72
// galaxy_comments_begin
//   local_nodeid
// galaxy_comments_end

*NAME_MAP
*279 A[31]
*280 A[30]
*281 A[29]
*282 A[28]
*283 A[27]
*284 A[26]
*285 A[25]
*286 A[24]
*287 A[23]
*288 A[22]
*289 A[21]
*290 A[20]
*291 A[19]
*292 A[18]
*293 A[17]
*294 A[16]
*295 A[15]
*296 A[14]
*297 A[13]
*298 A[12]
*299 A[11]
*300 A[10]
*301 A[9]
*302 A[8]
*303 A[7]
*304 A[6]
*305 A[5]
*306 A[4]
*307 A[3]
*308 A[2]
*309 A[1]
*310 A[0]
*311 B[31]
*312 B[30]
*313 B[29]
*314 B[28]
*315 B[27]
*316 B[26]
*317 B[25]
*318 B[24]
*319 B[23]
*320 B[22]
*321 B[21]
*322 B[20]
*323 B[19]
*324 B[18]
*325 B[17]
*326 B[16]
*327 B[15]
*328 B[14]
*329 B[13]
*330 B[12]
*331 B[11]
*332 B[10]
*333 B[9]
*334 B[8]
*335 B[7]
*336 B[6]
*337 B[5]
*338 B[4]
*339 B[3]
*340 B[2]
*341 B[1]
*342 B[0]
*343 Cin
*344 Sum[31]
*345 Sum[30]
*346 Sum[29]
*347 Sum[28]
*348 Sum[27]
*349 Sum[26]
*350 Sum[25]
*351 Sum[24]
*352 Sum[23]
*353 Sum[22]
*354 Sum[21]
*355 Sum[20]
*356 Sum[19]
*357 Sum[18]
*358 Sum[17]
*359 Sum[16]
*360 Sum[15]
*361 Sum[14]
*362 Sum[13]
*363 Sum[12]
*364 Sum[11]
*365 Sum[10]
*366 Sum[9]
*367 Sum[8]
*368 Sum[7]
*369 Sum[6]
*370 Sum[5]
*371 Sum[4]
*372 Sum[3]
*373 Sum[2]
*374 Sum[1]
*375 Sum[0]
*376 Cout
*377 U101
*378 U102
*379 U103
*380 U104
*381 U105
*382 U107
*383 U108
*384 U109
*385 U110
*386 U111
*387 U113
*388 U114
*389 U115
*390 U116
*391 U117
*392 U118
*393 U119
*394 U120
*395 U121
*396 U122
*397 U123
*398 U124
*399 U125
*400 U126
*401 U128
*402 U129
*403 U132
*404 U133
*405 U135
*406 U137
*407 U138
*408 U139
*409 U141
*410 U143
*411 U146
*412 U149
*413 U151
*414 U152
*415 U156
*416 U157
*417 U158
*418 U159
*419 U160
*420 U161
*421 U162
*422 U163
*423 U164
*424 U165
*425 U167
*426 U168
*427 U169
*428 U170
*429 U172
*430 U175
*431 U176
*432 U177
*433 U178
*434 U179
*435 U180
*436 U181
*437 U182
*438 U183
*439 U184
*440 U185
*441 U187
*442 U190
*443 U193
*444 U194
*445 U195
*446 U196
*447 U197
*448 U198
*449 U199
*450 U201
*451 U202
*452 U203
*453 U204
*454 U205
*455 U206
*456 U207
*457 U208
*458 U209
*459 U210
*460 U211
*461 U212
*462 U213
*463 U214
*464 U215
*465 U216
*466 U217
*467 U219
*468 U220
*469 U221
*470 U222
*471 U223
*472 U65
*473 U68
*474 U69
*475 U76
*476 U77
*477 U79
*478 U80
*479 U83
*480 U86
*481 U88
*482 U89
*483 U90
*484 U91
*485 U93
*486 U95
*487 U96
*488 U97
*489 U98
*490 U99
*491 ZBUF_16_inst_20
*492 ZBUF_17_inst_25
*493 ZBUF_17_inst_29
*494 ZBUF_32_inst_24
*495 ZBUF_50_inst_10
*496 ZBUF_9_inst_7
*497 ctmTdsLR_1_100
*498 ctmTdsLR_1_101
*499 ctmTdsLR_1_103
*500 ctmTdsLR_1_104
*501 ctmTdsLR_1_30
*502 ctmTdsLR_1_32
*503 ctmTdsLR_1_34
*504 ctmTdsLR_1_35
*505 ctmTdsLR_1_38
*506 ctmTdsLR_1_41
*507 ctmTdsLR_1_44
*508 ctmTdsLR_1_51
*509 ctmTdsLR_1_56
*510 ctmTdsLR_1_57
*511 ctmTdsLR_1_58
*512 ctmTdsLR_1_61
*513 ctmTdsLR_1_62
*514 ctmTdsLR_1_71
*515 ctmTdsLR_1_79
*516 ctmTdsLR_1_80
*517 ctmTdsLR_1_82
*518 ctmTdsLR_1_84
*519 ctmTdsLR_1_86
*520 ctmTdsLR_1_88
*521 ctmTdsLR_1_90
*522 ctmTdsLR_1_92
*523 ctmTdsLR_1_94
*524 ctmTdsLR_1_96
*525 ctmTdsLR_1_99
*526 ctmTdsLR_2_65
*527 ctmTdsLR_2_72
*528 ctmTdsLR_2_76
*529 ctmTdsLR_2_81
*530 ctmTdsLR_2_83
*531 ctmTdsLR_2_85
*532 ctmTdsLR_2_87
*533 ctmTdsLR_2_89
*534 ctmTdsLR_2_91
*535 ctmTdsLR_2_93
*536 ctmTdsLR_3_40
*537 ctmTdsLR_3_43
*538 ctmTdsLR_3_73
*539 intadd_0/U2
*540 intadd_0/U3
*541 intadd_0/U4
*542 intadd_0/U5
*543 intadd_0/U6
*544 intadd_0/U7
*545 intadd_0/U8
*546 intadd_1/U2
*547 intadd_1/U3
*548 intadd_1/U4
*549 intadd_1/U5
*550 intadd_1/U6
*551 intadd_1/U7
*552 intadd_2/U2
*553 intadd_2/U3
*554 intadd_2/U4
*555 intadd_2/U5
*556 intadd_2/U6
*557 intadd_3/U2
*558 intadd_3/U3
*559 intadd_3/U4
*560 ropt_h_inst_110
*561 ropt_h_inst_111
*562 ropt_h_inst_112
*1 A[31]
*2 A[30]
*3 A[29]
*4 A[28]
*5 A[27]
*6 A[26]
*7 A[25]
*8 A[24]
*9 A[23]
*10 A[22]
*11 A[21]
*12 A[20]
*13 A[19]
*14 A[18]
*15 A[17]
*16 A[16]
*17 A[15]
*18 A[14]
*19 A[13]
*20 A[12]
*21 A[11]
*22 A[10]
*23 A[9]
*24 A[8]
*25 A[7]
*26 A[6]
*27 A[5]
*28 A[4]
*29 A[3]
*30 A[2]
*31 A[1]
*32 A[0]
*33 B[31]
*34 B[30]
*35 B[29]
*36 B[28]
*37 B[27]
*38 B[26]
*39 B[25]
*40 B[24]
*41 B[23]
*42 B[22]
*43 B[21]
*44 B[20]
*45 B[19]
*46 B[18]
*47 B[17]
*48 B[16]
*49 B[15]
*50 B[14]
*51 B[13]
*52 B[12]
*53 B[11]
*54 B[10]
*55 B[9]
*56 B[8]
*57 B[7]
*58 B[6]
*59 B[5]
*60 B[4]
*61 B[3]
*62 B[2]
*63 B[1]
*64 B[0]
*65 Cin
*66 Sum[31]
*67 Sum[30]
*68 Sum[29]
*69 Sum[28]
*70 Sum[27]
*71 Sum[26]
*72 Sum[25]
*73 Sum[24]
*74 Sum[23]
*75 Sum[22]
*76 Sum[21]
*77 Sum[20]
*78 Sum[19]
*79 Sum[18]
*80 Sum[17]
*81 Sum[16]
*82 Sum[15]
*83 Sum[14]
*84 Sum[13]
*85 Sum[12]
*86 Sum[11]
*87 Sum[10]
*88 Sum[9]
*89 Sum[8]
*90 Sum[7]
*91 Sum[6]
*92 Sum[5]
*93 Sum[4]
*94 Sum[3]
*95 Sum[2]
*96 Sum[1]
*97 Sum[0]
*98 Cout
*102 ZBUF_16_6
*103 ZBUF_17_6
*104 ZBUF_17_7
*105 ZBUF_32_6
*106 ZBUF_50_3
*107 ZBUF_9_3
*108 intadd_0/CI
*109 intadd_0/SUM[0]
*110 intadd_0/SUM[1]
*111 intadd_0/SUM[2]
*112 intadd_0/SUM[3]
*113 intadd_0/SUM[4]
*114 intadd_0/SUM[5]
*115 intadd_0/SUM[6]
*116 intadd_0/n1
*117 intadd_0/n2
*118 intadd_0/n3
*119 intadd_0/n4
*120 intadd_0/n5
*121 intadd_0/n6
*122 intadd_0/n7
*123 intadd_1/CI
*124 intadd_1/SUM[0]
*125 intadd_1/SUM[1]
*126 intadd_1/SUM[2]
*127 intadd_1/SUM[3]
*128 intadd_1/SUM[4]
*129 intadd_1/SUM[5]
*130 intadd_1/n1
*131 intadd_1/n2
*132 intadd_1/n3
*133 intadd_1/n4
*134 intadd_1/n5
*135 intadd_1/n6
*136 intadd_2/CI
*137 intadd_2/SUM[0]
*138 intadd_2/SUM[1]
*139 intadd_2/SUM[2]
*140 intadd_2/SUM[3]
*141 intadd_2/SUM[4]
*142 intadd_2/n1
*143 intadd_2/n2
*144 intadd_2/n3
*145 intadd_2/n4
*146 intadd_2/n5
*147 intadd_3/CI
*148 intadd_3/SUM[0]
*149 intadd_3/SUM[1]
*150 intadd_3/SUM[2]
*151 intadd_3/n1
*152 intadd_3/n2
*153 intadd_3/n3
*154 n101
*155 n102
*156 n104
*157 n106
*158 n107
*159 n109
*160 n110
*161 n111
*162 n112
*163 n113
*164 n115
*165 n116
*166 n117
*167 n118
*168 n119
*169 n121
*170 n122
*171 n123
*172 n124
*173 n125
*174 n126
*175 n127
*176 n128
*177 n130
*178 n131
*179 n132
*180 n133
*181 n134
*182 n135
*183 n136
*184 n137
*185 n138
*186 n139
*187 n140
*188 n141
*189 n142
*190 n143
*191 n146
*192 n147
*193 n148
*194 n149
*195 n150
*196 n151
*197 n152
*198 n153
*199 n154
*200 n155
*201 n156
*202 n32
*203 n33
*204 n35
*205 n36
*206 n37
*207 n38
*208 n39
*209 n40
*210 n43
*211 n44
*212 n45
*213 n47
*214 n50
*215 n51
*216 n52
*217 n53
*218 n54
*219 n55
*220 n56
*221 n57
*222 n58
*223 n59
*224 n60
*225 n61
*226 n62
*227 n63
*228 n64
*229 n65
*230 n67
*231 n68
*232 n69
*233 n70
*234 n71
*235 n72
*236 n73
*237 n74
*238 n75
*239 n76
*240 n78
*241 n81
*242 n82
*243 n83
*244 n84
*245 n85
*246 n86
*247 n88
*248 n89
*249 n90
*250 n91
*251 n92
*252 n95
*253 n96
*254 n97
*255 n98
*256 n99
*257 popt_net_15
*258 popt_net_17
*259 popt_net_18
*260 popt_net_22
*261 popt_net_23
*262 popt_net_24
*263 popt_net_4
*264 popt_net_6
*265 popt_net_9
*266 ropt_net_35
*267 ropt_net_36
*268 ropt_net_37
*269 tmp_net25
*270 tmp_net26
*271 tmp_net27
*272 tmp_net28
*273 tmp_net29
*274 tmp_net30
*275 tmp_net31
*276 tmp_net32
*277 tmp_net33
*278 tmp_net34

*PORTS

*279 I
*280 I
*281 I
*282 I
*283 I
*284 I
*285 I
*286 I
*287 I
*288 I
*289 I
*290 I
*291 I
*292 I
*293 I
*294 I
*295 I
*296 I
*297 I
*298 I
*299 I
*300 I
*301 I
*302 I
*303 I
*304 I
*305 I
*306 I
*307 I
*308 I
*309 I
*310 I
*311 I
*312 I
*313 I
*314 I
*315 I
*316 I
*317 I
*318 I
*319 I
*320 I
*321 I
*322 I
*323 I
*324 I
*325 I
*326 I
*327 I
*328 I
*329 I
*330 I
*331 I
*332 I
*333 I
*334 I
*335 I
*336 I
*337 I
*338 I
*339 I
*340 I
*341 I
*342 I
*343 I
*344 O
*345 O
*346 O
*347 O
*348 O
*349 O
*350 O
*351 O
*352 O
*353 O
*354 O
*355 O
*356 O
*357 O
*358 O
*359 O
*360 O
*361 O
*362 O
*363 O
*364 O
*365 O
*366 O
*367 O
*368 O
*369 O
*370 O
*371 O
*372 O
*373 O
*374 O
*375 O
*376 O

*D_NET *1 3.51827

*CONN
*P *279 I *C 0.286 33.880
*I *539:B I *C 26.432 20.656

*CAP
1 *279 1.0285
2 *1:3 2.48977

*RES
1 *279 *1:3 71.4
2 *539:B *1:3 1.0
3 *539:B *1:2 0.001
*END

*D_NET *2 1.0249

*CONN
*P *280 I *C 0.286 26.280
*I *540:B I *C 10.624 24.152

*CAP
1 *280 0.183977
2 *2:2 0.030995
3 *2:4 0.809924

*RES
1 *280 *2:4 23.3571
2 *540:B *2:4 1.0
3 *540:B *2:3 0.001
4 *540:B *2:2 0.001
*END

*D_NET *3 0.845276

*CONN
*P *281 I *C 0.286 27.496
*I *541:B I *C 7.432 24.152

*CAP
1 *281 0.279164
2 *3:2 0.030995
3 *3:4 0.535117

*RES
1 *281 *3:4 19.2857
2 *541:B *3:4 1.0
3 *541:B *3:3 0.001
4 *541:B *3:2 0.001
*END

*D_NET *4 0.715814

*CONN
*P *282 I *C 0.286 23.848
*I *542:B I *C 5.608 20.808

*CAP
1 *282 0.186087
2 *4:2 0.0318209
3 *4:4 0.497905

*RES
1 *282 *4:4 15.6375
2 *542:B *4:4 1.0
3 *542:B *4:3 0.001
4 *542:B *4:2 0.001
*END

*D_NET *5 1.16664

*CONN
*P *283 I *C 0.286 18.680
*I *543:B I *C 13.512 20.808

*CAP
1 *283 0.197387
2 *5:2 0.0318284
3 *5:4 0.937428

*RES
1 *283 *5:4 28.1232
2 *543:B *5:4 1.0
3 *543:B *5:3 0.001
4 *543:B *5:2 0.001
*END

*D_NET *6 1.07305

*CONN
*P *284 I *C 0.286 15.640
*I *544:B I *C 8.648 20.656

*CAP
1 *284 0.404568
2 *6:3 0.668481

*RES
1 *284 *6:3 24.5946
2 *544:B *6:3 1.0
3 *544:B *6:2 0.001
*END

*D_NET *7 0.877578

*CONN
*P *285 I *C 0.286 16.856
*I *545:B I *C 8.192 19.288

*CAP
1 *285 0.305235
2 *7:2 0.0254811
3 *7:4 0.546861

*RES
1 *285 *7:4 19.8179
2 *545:B *7:4 1.0
3 *545:B *7:3 0.001
4 *545:B *7:2 0.001
*END

*D_NET *8 0.807573

*CONN
*P *286 I *C 0.286 17.464
*I *421:A2 I *C 5.760 19.288
*I *454:A2 I *C 6.368 18.224

*CAP
1 *286 0.10197
2 *421:A2 0.0479835
3 *454:A2 0.0963756
4 *8:5 0.561244

*RES
1 *286 *8:5 11.3375
2 *421:A2 *8:5 4.23131
3 *421:A2 *8:3 0.001
4 *454:A2 *8:5 3.97679
5 *454:A2 *8:4 0.001
*END

*D_NET *9 1.42789

*CONN
*P *287 I *C 0.286 15.032
*I *546:B I *C 6.520 25.976

*CAP
1 *287 0.930004
2 *9:2 0.0254819
3 *9:4 0.472405

*RES
1 *287 *9:4 31.2286
2 *546:B *9:4 1.0
3 *546:B *9:3 0.001
4 *546:B *9:2 0.001
*END

*D_NET *10 1.73684

*CONN
*P *288 I *C 0.286 8.952
*I *547:B I *C 7.128 27.344

*CAP
1 *288 1.24162
2 *10:3 0.495212

*RES
1 *288 *10:3 45.5696
2 *547:B *10:3 1.0
3 *547:B *10:2 0.001
*END

*D_NET *11 2.45849

*CONN
*P *289 I *C 0.286 8.344
*I *548:B I *C 11.232 30.688

*CAP
1 *289 0.680272
2 *11:3 1.77822

*RES
1 *289 *11:3 59.9554
2 *548:B *11:3 1.0
3 *548:B *11:2 0.001
*END

*D_NET *12 1.10026

*CONN
*P *290 I *C 0.286 30.840
*I *549:B I *C 14.424 30.688

*CAP
1 *290 0.0730263
2 *12:3 1.02723

*RES
1 *290 *12:3 26.4474
2 *549:B *12:3 1.0
3 *549:B *12:2 0.001
*END

*D_NET *13 3.52212

*CONN
*P *291 I *C 0.286 6.824
*I *550:B I *C 17.464 30.840

*CAP
1 *291 1.51705
2 *13:2 0.0309951
3 *13:4 1.97408

*RES
1 *291 *13:4 74.1143
2 *550:B *13:4 1.0
3 *550:B *13:3 0.001
4 *550:B *13:2 0.001
*END

*D_NET *14 1.74196

*CONN
*P *292 I *C 0.286 28.712
*I *551:B I *C 20.656 30.840

*CAP
1 *292 0.229615
2 *14:2 0.0309951
3 *14:4 1.48135

*RES
1 *292 *14:4 40.7286
2 *551:B *14:4 1.0
3 *551:B *14:3 0.001
4 *551:B *14:2 0.001
*END

*D_NET *15 3.64417

*CONN
*P *293 I *C 0.286 7.736
*I *419:A2 I *C 21.908 29.320
*I *449:A2 I *C 23.240 31.600

*CAP
1 *293 1.54549
2 *419:A2 0.0370018
3 *449:A2 0.114725
4 *15:4 1.94696

*RES
1 *293 *15:4 77.3589
2 *419:A2 *15:4 2.05667
3 *449:A2 *15:4 8.16429
4 *449:A2 *15:3 0.001
*END

*D_NET *16 2.80772

*CONN
*P *294 I *C 0.286 14.120
*I *552:B I *C 26.888 26.128

*CAP
1 *294 0.86979
2 *16:3 1.93793

*RES
1 *294 *16:3 69.9982
2 *552:B *16:3 1.0
3 *552:B *16:2 0.001
*END

*D_NET *17 3.15879

*CONN
*P *295 I *C 0.286 6.216
*I *553:B I *C 23.848 24.000

*CAP
1 *295 1.27915
2 *17:3 1.87964

*RES
1 *295 *17:3 74.3411
2 *553:B *17:3 1.0
3 *553:B *17:2 0.001
*END

*D_NET *18 2.20128

*CONN
*P *296 I *C 0.286 16.248
*I *554:B I *C 24.152 22.632

*CAP
1 *296 0.659749
2 *18:2 0.026307
3 *18:4 1.51523

*RES
1 *296 *18:4 54.7232
2 *554:B *18:4 1.0
3 *554:B *18:3 0.001
4 *554:B *18:2 0.001
*END

*D_NET *19 1.87103

*CONN
*P *297 I *C 0.286 24.456
*I *555:B I *C 21.112 20.808

*CAP
1 *297 0.322354
2 *19:2 0.0310025
3 *19:4 1.51768

*RES
1 *297 *19:4 44.2571
2 *555:B *19:4 1.0
3 *555:B *19:3 0.001
4 *555:B *19:2 0.001
*END

*D_NET *20 2.86086

*CONN
*P *298 I *C 0.286 2.568
*I *556:B I *C 19.288 19.440

*CAP
1 *298 1.33467
2 *20:3 1.52619

*RES
1 *298 *20:3 65.1768
2 *556:B *20:3 1.0
3 *556:B *20:2 0.001
*END

*D_NET *21 1.02964

*CONN
*P *299 I *C 0.286 18.072
*I *417:A2 I *C 10.168 17.464
*I *442:A2 I *C 11.688 18.224

*CAP
1 *299 0.0470757
2 *417:A2 0.0394475
3 *442:A2 0.0501172
4 *21:5 0.892996

*RES
1 *299 *21:5 18.0482
2 *417:A2 *21:3 0.001
3 *417:A2 *21:5 2.43839
4 *442:A2 *21:4 0.001
5 *442:A2 *21:5 4.36286
*END

*D_NET *22 3.63766

*CONN
*P *300 I *C 0.286 34.488
*I *557:B I *C 24.456 19.288

*CAP
1 *300 0.964732
2 *22:2 0.0254811
3 *22:4 2.64744

*RES
1 *300 *22:4 71.4643
2 *557:B *22:4 1.0
3 *557:B *22:3 0.001
4 *557:B *22:2 0.001
*END

*D_NET *23 2.34477

*CONN
*P *301 I *C 0.286 28.104
*I *558:B I *C 11.688 14.120

*CAP
1 *301 0.803958
2 *23:2 0.0310025
3 *23:4 1.50981

*RES
1 *301 *23:4 45.8857
2 *558:B *23:4 1.0
3 *558:B *23:3 0.001
4 *558:B *23:2 0.001
*END

*D_NET *24 0.685177

*CONN
*P *302 I *C 0.286 11.688
*I *559:B I *C 8.040 13.968

*CAP
1 *302 0.210708
2 *24:3 0.474469

*RES
1 *302 *24:3 18.4268
2 *559:B *24:3 1.0
3 *559:B *24:2 0.001
*END

*D_NET *25 1.19014

*CONN
*P *303 I *C 0.286 4.696
*I *423:A2 I *C 7.888 10.776
*I *441:A2 I *C 9.712 11.536

*CAP
1 *303 0.431048
2 *423:A2 0.0155816
3 *441:A2 0.0466742
4 *25:5 0.696833

*RES
1 *303 *25:5 24.9089
2 *423:A2 *25:5 1.79917
3 *423:A2 *25:3 0.001
4 *441:A2 *25:5 5.45
5 *441:A2 *25:4 0.001
*END

*D_NET *26 2.04971

*CONN
*P *304 I *C 0.286 25.672
*I *440:A I *C 21.264 24.608

*CAP
1 *304 0.594979
2 *26:3 1.45473

*RES
1 *304 *26:3 39.8696
2 *440:A *26:3 1.0
3 *440:A *26:2 0.001
*END

*D_NET *27 1.70015

*CONN
*P *305 I *C 0.286 29.624
*I *439:A I *C 18.832 25.520

*CAP
1 *305 0.371662
2 *27:3 1.32849

*RES
1 *305 *27:3 40.9554
2 *439:A *27:3 1.0
3 *439:A *27:2 0.001
*END

*D_NET *28 1.74108

*CONN
*P *306 I *C 0.286 30.232
*I *433:A2 I *C 17.768 29.320
*I *434:A2 I *C 18.984 28.256

*CAP
1 *306 0.174954
2 *434:A2 0.124758
3 *28:4 1.44137
4 *28:5 0.0

*RES
1 *306 *28:4 33.3554
2 *433:A2 *28:4 1.0
3 *433:A2 *28:3 0.001
4 *434:A2 *28:4 5.48214
5 *434:A2 *28:5 0.001
*END

*D_NET *29 2.68352

*CONN
*P *307 I *C 0.286 35.096
*I *435:B I *C 14.880 12.752

*CAP
1 *307 1.61269
2 *29:3 1.07082

*RES
1 *307 *29:3 66.5143
2 *435:B *29:3 1.0
3 *435:B *29:2 0.001
*END

*D_NET *30 1.56822

*CONN
*P *308 I *C 0.286 3.480
*I *430:A2 I *C 14.880 10.776
*I *431:A2 I *C 15.640 8.496

*CAP
1 *308 0.385334
2 *430:A2 0.043578
3 *431:A2 0.00294755
4 *30:5 1.13636

*RES
1 *308 *30:5 35.2554
2 *430:A2 *30:3 0.001
3 *430:A2 *30:5 6.17417
4 *431:A2 *30:4 0.001
5 *431:A2 *30:5 2.43214
*END

*D_NET *31 1.65097

*CONN
*P *309 I *C 0.286 5.608
*I *429:A1 I *C 12.904 5.608
*I *528:A1 I *C 13.664 8.952
*I *561:A I *C 12.296 12.600

*CAP
1 *309 0.0436138
2 *429:A1 0.0179259
3 *528:A1 0.0173984
4 *561:A 0.0935965
5 *31:7 1.06042
6 *31:8 0.418014

*RES
1 *309 *31:7 22.9339
2 *429:A1 *31:5 0.001
3 *429:A1 *31:7 1.5
4 *528:A1 *31:6 0.001
5 *528:A1 *31:8 2.66071
6 *561:A *31:4 0.001
7 *561:A *31:8 9.25
8 *31:7 *31:8 5.775
*END

*D_NET *32 1.31434

*CONN
*P *310 I *C 0.286 1.960
*I *377:A1 I *C 8.344 5.912
*I *425:A3 I *C 10.168 7.736
*I *428:A1 I *C 6.976 5.760
*I *503:A2 I *C 6.064 5.912

*CAP
1 *310 0.282987
2 *425:A3 0.109959
3 *428:A1 0.00548519
4 *503:A2 0.00576605
5 *32:5 0.0856292
6 *32:9 0.447136
7 *32:11 0.377378

*RES
1 *310 *32:11 18.3518
2 *377:A1 *32:9 1.0
3 *377:A1 *32:8 0.001
4 *425:A3 *32:9 8.12143
5 *425:A3 *32:10 0.001
6 *428:A1 *32:5 1.44464
7 *428:A1 *32:7 0.001
8 *503:A2 *32:11 1.345
9 *503:A2 *32:6 0.001
10 *32:5 *32:9 2.07321
11 *32:5 *32:11 1.57946
*END

*D_NET *33 2.19522

*CONN
*P *311 I *C 32.968 36.466
*I *539:A I *C 26.888 21.264

*CAP
1 *311 0.39616
2 *33:3 1.79906

*RES
1 *311 *33:3 38.2089
2 *539:A *33:3 1.0
3 *539:A *33:2 0.001
*END

*D_NET *34 0.914738

*CONN
*P *312 I *C 10.472 36.466
*I *540:A I *C 11.080 24.608

*CAP
1 *312 0.0781222
2 *34:3 0.836616

*RES
1 *312 *34:3 22.4661
2 *540:A *34:3 1.0
3 *540:A *34:2 0.001
*END

*D_NET *35 1.35153

*CONN
*P *313 I *C 12.296 36.466
*I *541:A I *C 7.888 24.608

*CAP
1 *313 0.402121
2 *35:3 0.949405

*RES
1 *313 *35:3 29.9482
2 *541:A *35:3 1.0
3 *541:A *35:2 0.001
*END

*D_NET *36 1.54814

*CONN
*P *314 I *C 2.568 36.466
*I *542:A I *C 6.064 21.264

*CAP
1 *314 0.318701
2 *36:3 1.22944

*RES
1 *314 *36:3 33.5946
2 *542:A *36:3 1.0
3 *542:A *36:2 0.001
*END

*D_NET *37 2.72994

*CONN
*P *315 I *C 29.624 36.466
*I *543:A I *C 13.056 21.264

*CAP
1 *315 0.845132
2 *37:3 1.88481

*RES
1 *315 *37:3 57.5446
2 *543:A *37:3 1.0
3 *543:A *37:2 0.001
*END

*D_NET *38 2.62099

*CONN
*P *316 I *C 27.192 36.466
*I *544:A I *C 9.104 21.264

*CAP
1 *316 0.762349
2 *38:3 1.85864

*RES
1 *316 *38:3 60.4831
2 *544:A *38:3 1.0
3 *544:A *38:2 0.001
*END

*D_NET *39 1.69844

*CONN
*P *317 I *C 11.688 36.466
*I *545:A I *C 8.648 18.832

*CAP
1 *317 0.234232
2 *39:3 1.46421

*RES
1 *317 *39:3 37.1232
2 *545:A *39:3 1.0
3 *545:A *39:2 0.001
*END

*D_NET *40 1.67237

*CONN
*P *318 I *C 7.128 36.466
*I *421:A1 I *C 5.912 18.984
*I *454:A1 I *C 6.216 17.464

*CAP
1 *318 0.101369
2 *421:A1 0.0544386
3 *40:5 1.51656

*RES
1 *318 *40:5 35.7661
2 *421:A1 *40:3 0.001
3 *421:A1 *40:5 5.10536
4 *454:A1 *40:5 1.0
5 *454:A1 *40:4 0.001
*END

*D_NET *41 0.81171

*CONN
*P *319 I *C 6.520 36.466
*I *546:A I *C 6.976 25.520

*CAP
1 *319 0.0776153
2 *41:3 0.734095

*RES
1 *319 *41:3 20.6107
2 *546:A *41:3 1.0
3 *546:A *41:2 0.001
*END

*D_NET *42 2.26212

*CONN
*P *320 I *C 23.848 36.466
*I *547:A I *C 7.584 27.952

*CAP
1 *320 0.540283
2 *42:3 1.72184

*RES
1 *320 *42:3 45.2831
2 *547:A *42:3 1.0
3 *547:A *42:2 0.001
*END

*D_NET *43 1.00478

*CONN
*P *321 I *C 16.248 36.466
*I *548:A I *C 10.776 31.296

*CAP
1 *321 0.508755
2 *43:3 0.49602

*RES
1 *321 *43:3 19.7964
2 *548:A *43:3 1.0
3 *548:A *43:2 0.001
*END

*D_NET *44 0.491816

*CONN
*P *322 I *C 14.728 36.466
*I *549:A I *C 13.968 31.296

*CAP
1 *322 0.0810292
2 *44:3 0.410787

*RES
1 *322 *44:3 10.7946
2 *549:A *44:3 1.0
3 *549:A *44:2 0.001
*END

*D_NET *45 0.467398

*CONN
*P *323 I *C 18.072 36.466
*I *550:A I *C 17.008 31.296

*CAP
1 *323 0.0935054
2 *45:3 0.373893

*RES
1 *323 *45:3 11.3375
2 *550:A *45:3 1.0
3 *550:A *45:2 0.001
*END

*D_NET *46 1.10696

*CONN
*P *324 I *C 27.800 36.466
*I *551:A I *C 20.188 31.296

*CAP
1 *324 0.656382
2 *46:2 0.450576

*RES
1 *324 *46:2 23.5107
2 *551:A *46:2 0.438
*END

*D_NET *47 1.41674

*CONN
*P *325 I *C 28.408 36.466
*I *419:A1 I *C 22.024 29.016
*I *449:A1 I *C 23.088 30.840

*CAP
1 *325 0.27288
2 *419:A1 0.131585
3 *449:A1 0.010934
4 *47:3 1.00134
5 *47:5 0.0

*RES
1 *325 *47:3 21.0125
2 *419:A1 *47:3 5.54821
3 *419:A1 *47:4 0.001
4 *449:A1 *47:3 2.24381
5 *449:A1 *47:5 0.001
*END

*D_NET *48 1.01653

*CONN
*P *326 I *C 29.016 36.466
*I *552:A I *C 27.344 25.520

*CAP
1 *326 0.150484
2 *48:3 0.86605

*RES
1 *326 *48:3 22.7375
2 *552:A *48:3 1.0
3 *552:A *48:2 0.001
*END

*D_NET *49 2.10499

*CONN
*P *327 I *C 15.336 36.466
*I *553:A I *C 24.317 24.608

*CAP
1 *327 0.900293
2 *553:A 0.0345201
3 *49:2 1.17018

*RES
1 *327 *49:2 37.1232
2 *553:A *49:2 1.2575
*END

*D_NET *50 1.40979

*CONN
*P *328 I *C 26.584 36.466
*I *554:A I *C 24.608 22.176

*CAP
1 *328 0.186715
2 *50:3 1.22308

*RES
1 *328 *50:3 29.2518
2 *554:A *50:3 1.0
3 *554:A *50:2 0.001
*END

*D_NET *51 1.90742

*CONN
*P *329 I *C 25.976 36.466
*I *555:A I *C 21.568 21.264

*CAP
1 *329 0.31648
2 *51:3 1.59094

*RES
1 *329 *51:3 35.2232
2 *555:A *51:3 1.0
3 *555:A *51:2 0.001
*END

*D_NET *52 3.5066

*CONN
*P *330 I *C 35.704 36.466
*I *556:A I *C 19.744 18.832

*CAP
1 *330 0.0274413
2 *556:A 1.90366
3 *52:2 1.5755
4 *52:3 0.0

*RES
1 *330 *52:2 4.075
2 *556:A *52:2 57.7268
3 *556:A *52:3 0.001
*END

*D_NET *53 1.86059

*CONN
*P *331 I *C 8.040 36.466
*I *417:A1 I *C 10.320 17.768
*I *442:A1 I *C 11.536 17.464

*CAP
1 *331 0.207564
2 *442:A1 0.0895943
3 *53:4 1.56343
4 *53:5 0.0

*RES
1 *331 *53:4 37.6661
2 *417:A1 *53:4 1.0
3 *417:A1 *53:3 0.001
4 *442:A1 *53:4 4.125
5 *442:A1 *53:5 0.001
*END

*D_NET *54 2.44725

*CONN
*P *332 I *C 32.360 36.466
*I *557:A I *C 24.912 18.832

*CAP
1 *332 0.753557
2 *54:3 1.69369

*RES
1 *332 *54:3 45.6018
2 *557:A *54:3 1.0
3 *557:A *54:2 0.001
*END

*D_NET *55 1.98824

*CONN
*P *333 I *C 13.816 36.466
*I *558:A I *C 12.144 14.576

*CAP
1 *333 0.587351
2 *55:3 1.40089

*RES
1 *333 *55:3 43.1117
2 *558:A *55:3 1.0
3 *558:A *55:2 0.001
*END

*D_NET *56 2.09756

*CONN
*P *334 I *C 1.960 36.466
*I *559:A I *C 8.496 14.576

*CAP
1 *334 0.0262418
2 *559:A 0.350422
3 *56:2 1.7209
4 *56:3 0.0

*RES
1 *334 *56:2 3.425
2 *559:A *56:3 0.001
3 *559:A *56:2 48.5411
*END

*D_NET *57 3.61641

*CONN
*P *335 I *C 30.840 36.466
*I *423:A1 I *C 8.040 11.080
*I *441:A1 I *C 9.505 10.776

*CAP
1 *335 2.2258
2 *423:A1 0.00145713
3 *441:A1 0.0452925
4 *57:3 1.34386
5 *57:4 0.0

*RES
1 *335 *57:3 84.6861
2 *423:A1 *57:4 0.001
3 *423:A1 *57:3 3.29554
4 *441:A1 *57:3 1.692
*END

*D_NET *58 1.52237

*CONN
*P *336 I *C 25.064 36.466
*I *440:B I *C 21.264 24.152

*CAP
1 *336 0.260815
2 *58:2 0.029359
3 *58:4 1.2322

*RES
1 *336 *58:4 29.025
2 *440:B *58:4 1.0
3 *440:B *58:3 0.001
4 *440:B *58:2 0.001
*END

*D_NET *59 0.884995

*CONN
*P *337 I *C 19.288 36.466
*I *439:B I *C 18.376 25.976

*CAP
1 *337 0.0947731
2 *59:2 0.0254819
3 *59:4 0.76474

*RES
1 *337 *59:4 20.6107
2 *439:B *59:4 1.0
3 *439:B *59:3 0.001
4 *439:B *59:2 0.001
*END

*D_NET *60 2.31814

*CONN
*P *338 I *C 36.616 36.466
*I *433:A1 I *C 17.920 29.016
*I *434:A1 I *C 18.832 27.496

*CAP
1 *338 0.393986
2 *433:A1 0.0172704
3 *434:A1 0.128981
4 *60:5 1.77791

*RES
1 *338 *60:5 45.2661
2 *433:A1 *60:3 0.001
3 *433:A1 *60:5 3.01964
4 *434:A1 *60:4 0.001
5 *434:A1 *60:5 4.5456
*END

*D_NET *61 3.60115

*CONN
*P *339 I *C 33.576 36.466
*I *435:A I *C 15.336 12.144

*CAP
1 *339 0.0267102
2 *435:A 1.61874
3 *61:2 1.95569
4 *61:3 0.0

*RES
1 *339 *61:2 7.76786
2 *435:A *61:2 69.4411
3 *435:A *61:3 0.001
*END

*D_NET *62 3.86078

*CONN
*P *340 I *C 30.232 36.466
*I *430:A1 I *C 15.032 11.080
*I *431:A1 I *C 15.488 9.256

*CAP
1 *340 1.08073
2 *430:A1 0.0161929
3 *431:A1 0.154196
4 *62:5 2.60966

*RES
1 *340 *62:5 72.9839
2 *430:A1 *62:5 1.5
3 *430:A1 *62:3 0.001
4 *431:A1 *62:5 5.17857
5 *431:A1 *62:4 0.001
*END

*D_NET *63 4.40679

*CONN
*P *341 I *C 24.456 36.466
*I *471:B I *C 11.688 10.624
*I *482:A1 I *C 11.232 5.760
*I *520:A2 I *C 14.236 5.912

*CAP
1 *341 1.11005
2 *471:B 0.0367398
3 *482:A1 0.0217754
4 *520:A2 0.167219
5 *63:6 0.611632
6 *63:7 2.45937

*RES
1 *341 *63:7 67.5554
2 *471:B *63:7 3.24821
3 *471:B *63:5 0.001
4 *482:A1 *63:6 3.83393
5 *482:A1 *63:4 0.001
6 *520:A2 *63:6 4.51614
7 *63:6 *63:7 9.80357
*END

*D_NET *64 4.52624

*CONN
*P *342 I *C 35.096 36.466
*I *425:A2 I *C 9.712 8.192
*I *427:A2 I *C 15.640 5.152

*CAP
1 *342 1.74306
2 *425:A2 0.431529
3 *427:A2 0.254548
4 *64:5 2.09711

*RES
1 *342 *64:5 85.4375
2 *425:A2 *64:5 11.3893
3 *425:A2 *64:3 0.001
4 *427:A2 *64:5 7.23214
5 *427:A2 *64:4 0.001
*END

*D_NET *65 1.22028

*CONN
*P *343 I *C 0.286 4.088
*I *377:A2 I *C 8.496 5.152
*I *425:A4 I *C 9.864 7.584
*I *428:A2 I *C 6.769 5.912
*I *503:A1 I *C 5.912 5.608

*CAP
1 *343 0.16262
2 *425:A4 0.0983376
3 *428:A2 0.0170765
4 *503:A1 0.0170186
5 *65:5 0.0229395
6 *65:6 0.0809048
7 *65:7 0.363356
8 *65:8 0.458026
9 *65:11 0.0

*RES
1 *343 *65:7 12.5536
2 *377:A2 *65:10 0.001
3 *377:A2 *65:8 1.345
4 *425:A4 *65:11 0.001
5 *425:A4 *65:8 8.66428
6 *428:A2 *65:6 1.714
7 *503:A1 *65:9 0.001
8 *503:A1 *65:5 0.0674699
9 *503:A1 *65:7 1.76071
10 *65:5 *65:6 0.498
11 *65:7 *65:8 4.29375
*END

*D_NET *66 0.577922

*CONN
*P *344 O *C 37.986 15.640
*I *469:SO O *C 30.992 14.272 *D HADDX1_RVT

*CAP
1 *344 0.125082
2 *66:3 0.452841

*RES
1 *344 *66:3 15.6652
2 *469:SO *66:3 1.0
3 *469:SO *66:2 0.001
*END

*D_NET *67 1.1524

*CONN
*P *345 O *C 37.986 1.960
*I *399:Y O *C 25.064 8.648 *D OA21X1_RVT

*CAP
1 *345 0.427555
2 *67:5 0.724845

*RES
1 *345 *67:5 35.5268
2 *399:Y *67:5 1.0
3 *399:Y *67:4 0.001
4 *399:Y *67:3 0.001
5 *67:2 *67:3 0.001
*END

*D_NET *68 2.1706

*CONN
*P *346 O *C 37.986 7.432
*I *398:Y O *C 21.872 10.408 *D OA21X1_RVT

*CAP
1 *346 1.41773
2 *68:2 0.752869

*RES
1 *346 *68:2 35.1696
2 *398:Y *68:2 0.42
*END

*D_NET *69 1.73592

*CONN
*P *347 O *C 37.986 10.776
*I *397:Y O *C 18.680 13.548 *D OA21X1_RVT

*CAP
1 *347 1.39047
2 *69:3 0.0272232
3 *69:4 0.318225

*RES
1 *347 *69:4 39.9143
2 *397:Y *69:3 0.001
3 *69:2 *69:3 0.001
4 *69:3 *69:4 1.0
*END

*D_NET *70 2.14061

*CONN
*P *348 O *C 37.986 27.192
*I *396:Y O *C 20.048 21.494 *D OA21X1_RVT

*CAP
1 *348 0.659778
2 *396:Y 0.0328529
3 *70:2 1.44798

*RES
1 *348 *70:2 43.5839
2 *396:Y *70:2 0.001
*END

*D_NET *71 1.85527

*CONN
*P *349 O *C 37.986 27.800
*I *395:Y O *C 19.592 24.837 *D OA21X1_RVT

*CAP
1 *349 0.499477
2 *395:Y 0.033585
3 *71:2 1.32221

*RES
1 *349 *71:2 39.5125
2 *395:Y *71:2 0.001
*END

*D_NET *72 1.66421

*CONN
*P *350 O *C 37.986 17.768
*I *394:Y O *C 17.616 17.920 *D OA21X1_RVT

*CAP
1 *350 0.338756
2 *72:5 1.32546

*RES
1 *350 *72:5 37.3795
2 *394:Y *72:5 1.0
3 *394:Y *72:4 0.001
4 *394:Y *72:3 0.001
5 *72:2 *72:3 0.001
*END

*D_NET *73 2.34005

*CONN
*P *351 O *C 37.986 2.872
*I *393:Y O *C 15.184 15.258 *D OA21X1_RVT

*CAP
1 *351 0.0268299
2 *393:Y 0.656225
3 *73:2 1.65699

*RES
1 *351 *73:2 4.78214
2 *393:Y *73:2 59.6545
*END

*D_NET *74 1.83213

*CONN
*P *352 O *C 37.986 28.408
*I *392:Y O *C 17.133 26.538 *D OA21X1_RVT

*CAP
1 *352 0.478995
2 *74:2 0.03082
3 *74:4 1.32232

*RES
1 *352 *74:4 40.9554
2 *392:Y *74:3 0.001
3 *74:2 *74:3 0.001
4 *74:3 *74:4 1.0
*END

*D_NET *75 2.15509

*CONN
*P *353 O *C 37.986 29.016
*I *391:Y O *C 13.056 28.864 *D OA21X1_RVT

*CAP
1 *353 0.0280755
2 *391:Y 0.481832
3 *75:4 1.64519
4 *75:5 0.0

*RES
1 *353 *75:4 4.23929
2 *391:Y *75:5 0.001
3 *391:Y *75:3 0.001
4 *391:Y *75:4 42.2831
5 *75:2 *75:3 0.001
*END

*D_NET *76 1.7543

*CONN
*P *354 O *C 37.986 29.624
*I *390:Y O *C 16.775 29.624 *D OA21X1_RVT

*CAP
1 *354 0.235008
2 *390:Y 0.00165335
3 *76:2 1.51764

*RES
1 *354 *76:2 39.7367
2 *390:Y *76:2 0.356
*END

*D_NET *77 1.13918

*CONN
*P *355 O *C 37.986 26.584
*I *389:Y O *C 23.240 26.280 *D OA21X1_RVT

*CAP
1 *355 0.07607
2 *77:3 1.06311

*RES
1 *355 *77:3 27.5804
2 *389:Y *77:3 1.0
3 *389:Y *77:2 0.001
*END

*D_NET *78 2.43574

*CONN
*P *356 O *C 37.986 5.912
*I *388:Y O *C 26.888 27.192 *D OA21X1_RVT

*CAP
1 *356 0.536446
2 *78:3 1.8993

*RES
1 *356 *78:3 58.5232
2 *388:Y *78:3 1.0
3 *388:Y *78:2 0.001
*END

*D_NET *79 0.636313

*CONN
*P *357 O *C 37.986 30.232
*I *460:Y O *C 30.688 30.536 *D OA21X1_RVT

*CAP
1 *357 0.133936
2 *79:3 0.502377

*RES
1 *357 *79:3 14.0839
2 *460:Y *79:3 1.0
3 *460:Y *79:2 0.001
*END

*D_NET *80 0.638133

*CONN
*P *358 O *C 37.986 31.448
*I *450:Y O *C 32.968 30.536 *D OA21X1_RVT

*CAP
1 *358 0.149924
2 *80:3 0.488209

*RES
1 *358 *80:3 13.2696
2 *450:Y *80:3 1.0
3 *450:Y *80:2 0.001
*END

*D_NET *81 0.693094

*CONN
*P *359 O *C 37.986 32.056
*I *387:Y O *C 32.056 29.624 *D OA21X1_RVT

*CAP
1 *359 0.177628
2 *81:3 0.515466

*RES
1 *359 *81:3 15.6375
2 *387:Y *81:3 1.0
3 *387:Y *81:2 0.001
*END

*D_NET *82 0.97634

*CONN
*P *360 O *C 37.986 32.664
*I *531:Y O *C 32.788 26.552 *D AOI21X1_RVT

*CAP
1 *360 0.253525
2 *82:5 0.722815
3 *82:6 0.0

*RES
1 *360 *82:5 21.0661
2 *531:Y *82:3 0.001
3 *531:Y *82:2 0.27
4 *82:2 *82:3 0.0799087
5 *82:2 *82:6 0.001
6 *82:4 *82:6 0.001
7 *82:5 *82:6 1.29917
*END

*D_NET *83 1.30349

*CONN
*P *361 O *C 37.986 34.488
*I *386:Y O *C 32.816 24.760 *D OA21X1_RVT

*CAP
1 *361 0.277833
2 *83:5 1.02566

*RES
1 *361 *83:5 27.1125
2 *386:Y *83:5 1.0
3 *386:Y *83:4 0.001
4 *386:Y *83:3 0.001
5 *83:2 *83:3 0.001
*END

*D_NET *84 0.503439

*CONN
*P *362 O *C 37.986 19.592
*I *385:Y O *C 32.816 20.504 *D OA21X1_RVT

*CAP
1 *362 0.110317
2 *84:3 0.393122

*RES
1 *362 *84:3 11.8375
2 *385:Y *84:2 0.001
3 *385:Y *84:3 1.29917
*END

*D_NET *85 1.1281

*CONN
*P *363 O *C 37.986 6.824
*I *384:Y O *C 32.816 17.160 *D OA21X1_RVT

*CAP
1 *363 0.745183
2 *85:3 0.382913

*RES
1 *363 *85:3 28.4224
2 *384:Y *85:3 1.0
3 *384:Y *85:2 0.001
*END

*D_NET *86 0.700828

*CONN
*P *364 O *C 37.986 10.168
*I *445:Y O *C 32.968 13.816 *D OA21X1_RVT

*CAP
1 *364 0.314283
2 *86:3 0.386545

*RES
1 *364 *86:3 15.9839
2 *445:Y *86:3 1.0
3 *445:Y *86:2 0.001
*END

*D_NET *87 0.654655

*CONN
*P *365 O *C 37.986 20.200
*I *383:Y O *C 29.776 19.592 *D OA21X1_RVT

*CAP
1 *365 0.0972236
2 *87:3 0.557432

*RES
1 *365 *87:3 16.4795
2 *383:Y *87:3 1.0
3 *383:Y *87:2 0.001
*END

*D_NET *88 1.14812

*CONN
*P *366 O *C 37.986 3.480
*I *529:Y O *C 30.992 11.080 *D AOI21X1_RVT

*CAP
1 *366 0.576713
2 *88:2 0.0149672
3 *88:3 0.00977581
4 *88:5 0.546661
5 *88:7 0.0

*RES
1 *366 *88:5 27.0375
2 *529:Y *88:4 0.001
3 *529:Y *88:7 0.001
4 *529:Y *88:5 1.29917
5 *88:2 *88:3 0.001
6 *88:3 *88:7 0.196017
7 *88:3 *88:6 1.62
8 *88:6 *88:7 0.001
*END

*D_NET *89 0.489424

*CONN
*P *367 O *C 37.986 11.384
*I *464:Y O *C 32.968 10.472 *D OA21X1_RVT

*CAP
1 *367 0.111793
2 *89:3 0.377631

*RES
1 *367 *89:3 12.1839
2 *464:Y *89:3 1.0
3 *464:Y *89:2 0.001
*END

*D_NET *90 1.94482

*CONN
*P *368 O *C 37.986 23.240
*I *382:Y O *C 30.384 9.624 *D OA21X1_RVT

*CAP
1 *368 0.667112
2 *90:2 1.2777

*RES
1 *368 *90:2 40.0554
2 *382:Y *90:2 0.42
*END

*D_NET *91 1.49933

*CONN
*P *369 O *C 37.986 8.040
*I *499:Y O *C 25.064 13.752 *D OA22X1_RVT

*CAP
1 *369 0.582633
2 *91:2 0.916693

*RES
1 *369 *91:2 34.3554
2 *499:Y *91:2 0.42
*END

*D_NET *92 2.5325

*CONN
*P *370 O *C 37.986 33.880
*I *381:Y O *C 23.848 19.592 *D OA21X1_RVT

*CAP
1 *370 0.847828
2 *92:3 1.68467

*RES