*SPEF "IEEE 1481-1999"
*DESIGN "csla32_bec"
*DATE "Fri May 22 11:03:12 2026"
*VENDOR "Synopsys Inc."
*PROGRAM "StarRC"
*VERSION "U-2022.12-SP3"
*DESIGN_FLOW "PIN_CAP NONE" "NAME_SCOPE LOCAL"
*DIVIDER /
*DELIMITER :
*BUS_DELIMITER []
*T_UNIT 1.0 NS
*C_UNIT 1.0 FF
*R_UNIT 1.0 OHM
*L_UNIT 1.0 HENRY

// COMMENTS

// CORNER_NAME 
// OPERATING_TEMPERATURE 25
// GLOBAL_TEMPERATURE 25
// TCAD_GRD_FILE /home2/synopsys/libraries/SAED32_EDK/tech/starrc/nominal/saed32nm_1p9m_nominal.nxtgrd
//   TCAD_TIME_STAMP Wed Mar 16 14:34:54 2011
//   TCADGRD_VERSION 72
// galaxy_comments_begin
//   local_nodeid
// galaxy_comments_end

*NAME_MAP
*268 A[31]
*269 A[30]
*270 A[29]
*271 A[28]
*272 A[27]
*273 A[26]
*274 A[25]
*275 A[24]
*276 A[23]
*277 A[22]
*278 A[21]
*279 A[20]
*280 A[19]
*281 A[18]
*282 A[17]
*283 A[16]
*284 A[15]
*285 A[14]
*286 A[13]
*287 A[12]
*288 A[11]
*289 A[10]
*290 A[9]
*291 A[8]
*292 A[7]
*293 A[6]
*294 A[5]
*295 A[4]
*296 A[3]
*297 A[2]
*298 A[1]
*299 A[0]
*300 B[31]
*301 B[30]
*302 B[29]
*303 B[28]
*304 B[27]
*305 B[26]
*306 B[25]
*307 B[24]
*308 B[23]
*309 B[22]
*310 B[21]
*311 B[20]
*312 B[19]
*313 B[18]
*314 B[17]
*315 B[16]
*316 B[15]
*317 B[14]
*318 B[13]
*319 B[12]
*320 B[11]
*321 B[10]
*322 B[9]
*323 B[8]
*324 B[7]
*325 B[6]
*326 B[5]
*327 B[4]
*328 B[3]
*329 B[2]
*330 B[1]
*331 B[0]
*332 Cin
*333 Sum[31]
*334 Sum[30]
*335 Sum[29]
*336 Sum[28]
*337 Sum[27]
*338 Sum[26]
*339 Sum[25]
*340 Sum[24]
*341 Sum[23]
*342 Sum[22]
*343 Sum[21]
*344 Sum[20]
*345 Sum[19]
*346 Sum[18]
*347 Sum[17]
*348 Sum[16]
*349 Sum[15]
*350 Sum[14]
*351 Sum[13]
*352 Sum[12]
*353 Sum[11]
*354 Sum[10]
*355 Sum[9]
*356 Sum[8]
*357 Sum[7]
*358 Sum[6]
*359 Sum[5]
*360 Sum[4]
*361 Sum[3]
*362 Sum[2]
*363 Sum[1]
*364 Sum[0]
*365 Cout
*366 U100
*367 U101
*368 U103
*369 U104
*370 U105
*371 U106
*372 U107
*373 U110
*374 U111
*375 U112
*376 U113
*377 U114
*378 U115
*379 U117
*380 U122
*381 U124
*382 U125
*383 U126
*384 U127
*385 U129
*386 U130
*387 U131
*388 U132
*389 U133
*390 U134
*391 U135
*392 U136
*393 U137
*394 U138
*395 U139
*396 U140
*397 U141
*398 U142
*399 U143
*400 U144
*401 U146
*402 U147
*403 U148
*404 U149
*405 U150
*406 U151
*407 U152
*408 U153
*409 U154
*410 U155
*411 U156
*412 U157
*413 U158
*414 U159
*415 U161
*416 U162
*417 U163
*418 U164
*419 U165
*420 U166
*421 U170
*422 U171
*423 U172
*424 U173
*425 U174
*426 U175
*427 U176
*428 U177
*429 U178
*430 U179
*431 U180
*432 U181
*433 U182
*434 U183
*435 U184
*436 U185
*437 U186
*438 U187
*439 U191
*440 U193
*441 U194
*442 U195
*443 U196
*444 U197
*445 U198
*446 U199
*447 U200
*448 U201
*449 U202
*450 U203
*451 U204
*452 U205
*453 U206
*454 U207
*455 U208
*456 U209
*457 U210
*458 U211
*459 U212
*460 U213
*461 U214
*462 U65
*463 U67
*464 U68
*465 U74
*466 U76
*467 U79
*468 U80
*469 U81
*470 U82
*471 U83
*472 U85
*473 U86
*474 U87
*475 U88
*476 U89
*477 U92
*478 ZBUF_2_inst_27
*479 ctmTdsLR_1_100
*480 ctmTdsLR_1_103
*481 ctmTdsLR_1_29
*482 ctmTdsLR_1_36
*483 ctmTdsLR_1_40
*484 ctmTdsLR_1_44
*485 ctmTdsLR_1_49
*486 ctmTdsLR_1_52
*487 ctmTdsLR_1_55
*488 ctmTdsLR_1_58
*489 ctmTdsLR_1_61
*490 ctmTdsLR_1_63
*491 ctmTdsLR_1_70
*492 ctmTdsLR_1_78
*493 ctmTdsLR_1_83
*494 ctmTdsLR_1_85
*495 ctmTdsLR_1_87
*496 ctmTdsLR_1_89
*497 ctmTdsLR_1_93
*498 ctmTdsLR_1_94
*499 ctmTdsLR_1_95
*500 ctmTdsLR_1_97
*501 ctmTdsLR_1_99
*502 ctmTdsLR_2_101
*503 ctmTdsLR_2_38
*504 ctmTdsLR_2_50
*505 ctmTdsLR_2_53
*506 ctmTdsLR_2_56
*507 ctmTdsLR_2_59
*508 ctmTdsLR_2_79
*509 ctmTdsLR_2_84
*510 ctmTdsLR_2_86
*511 ctmTdsLR_2_88
*512 ctmTdsLR_2_98
*513 ctmTdsLR_3_31
*514 ctmTdsLR_4_81
*515 ctmTdsLR_5_48
*516 ctmTdsLR_5_69
*517 intadd_0/U2
*518 intadd_0/U3
*519 intadd_0/U4
*520 intadd_0/U5
*521 intadd_0/U6
*522 intadd_0/U7
*523 intadd_0/U8
*524 intadd_1/U2
*525 intadd_1/U3
*526 intadd_1/U4
*527 intadd_1/U5
*528 intadd_1/U6
*529 intadd_1/U7
*530 intadd_2/U2
*531 intadd_2/U3
*532 intadd_2/U4
*533 intadd_2/U5
*534 intadd_2/U6
*535 intadd_3/U2
*536 intadd_3/U3
*537 intadd_3/U4
*538 ropt_h_inst_104
*539 ropt_h_inst_105
*540 ropt_h_inst_106
*1 A[31]
*2 A[30]
*3 A[29]
*4 A[28]
*5 A[27]
*6 A[26]
*7 A[25]
*8 A[24]
*9 A[23]
*10 A[22]
*11 A[21]
*12 A[20]
*13 A[19]
*14 A[18]
*15 A[17]
*16 A[16]
*17 A[15]
*18 A[14]
*19 A[13]
*20 A[12]
*21 A[11]
*22 A[10]
*23 A[9]
*24 A[8]
*25 A[7]
*26 A[6]
*27 A[5]
*28 A[4]
*29 A[3]
*30 A[2]
*31 A[1]
*32 A[0]
*33 B[31]
*34 B[30]
*35 B[29]
*36 B[28]
*37 B[27]
*38 B[26]
*39 B[25]
*40 B[24]
*41 B[23]
*42 B[22]
*43 B[21]
*44 B[20]
*45 B[19]
*46 B[18]
*47 B[17]
*48 B[16]
*49 B[15]
*50 B[14]
*51 B[13]
*52 B[12]
*53 B[11]
*54 B[10]
*55 B[9]
*56 B[8]
*57 B[7]
*58 B[6]
*59 B[5]
*60 B[4]
*61 B[3]
*62 B[2]
*63 B[1]
*64 B[0]
*65 Cin
*66 Sum[31]
*67 Sum[30]
*68 Sum[29]
*69 Sum[28]
*70 Sum[27]
*71 Sum[26]
*72 Sum[25]
*73 Sum[24]
*74 Sum[23]
*75 Sum[22]
*76 Sum[21]
*77 Sum[20]
*78 Sum[19]
*79 Sum[18]
*80 Sum[17]
*81 Sum[16]
*82 Sum[15]
*83 Sum[14]
*84 Sum[13]
*85 Sum[12]
*86 Sum[11]
*87 Sum[10]
*88 Sum[9]
*89 Sum[8]
*90 Sum[7]
*91 Sum[6]
*92 Sum[5]
*93 Sum[4]
*94 Sum[3]
*95 Sum[2]
*96 Sum[1]
*97 Sum[0]
*98 Cout
*102 ZBUF_2_6
*103 intadd_0/CI
*104 intadd_0/SUM[0]
*105 intadd_0/SUM[1]
*106 intadd_0/SUM[2]
*107 intadd_0/SUM[3]
*108 intadd_0/SUM[4]
*109 intadd_0/SUM[5]
*110 intadd_0/SUM[6]
*111 intadd_0/n1
*112 intadd_0/n2
*113 intadd_0/n3
*114 intadd_0/n4
*115 intadd_0/n5
*116 intadd_0/n6
*117 intadd_0/n7
*118 intadd_1/CI
*119 intadd_1/SUM[0]
*120 intadd_1/SUM[1]
*121 intadd_1/SUM[2]
*122 intadd_1/SUM[3]
*123 intadd_1/SUM[4]
*124 intadd_1/SUM[5]
*125 intadd_1/n1
*126 intadd_1/n2
*127 intadd_1/n3
*128 intadd_1/n4
*129 intadd_1/n5
*130 intadd_1/n6
*131 intadd_2/CI
*132 intadd_2/SUM[0]
*133 intadd_2/SUM[1]
*134 intadd_2/SUM[2]
*135 intadd_2/SUM[3]
*136 intadd_2/SUM[4]
*137 intadd_2/n1
*138 intadd_2/n2
*139 intadd_2/n3
*140 intadd_2/n4
*141 intadd_2/n5
*142 intadd_3/CI
*143 intadd_3/SUM[0]
*144 intadd_3/SUM[1]
*145 intadd_3/SUM[2]
*146 intadd_3/n1
*147 intadd_3/n2
*148 intadd_3/n3
*149 n100
*150 n101
*151 n102
*152 n103
*153 n104
*154 n105
*155 n106
*156 n107
*157 n108
*158 n109
*159 n110
*160 n111
*161 n112
*162 n114
*163 n118
*164 n119
*165 n120
*166 n121
*167 n122
*168 n123
*169 n124
*170 n125
*171 n126
*172 n127
*173 n128
*174 n129
*175 n130
*176 n131
*177 n132
*178 n133
*179 n134
*180 n135
*181 n136
*182 n137
*183 n138
*184 n139
*185 n140
*186 n141
*187 n142
*188 n143
*189 n144
*190 n145
*191 n146
*192 n147
*193 n32
*194 n33
*195 n34
*196 n38
*197 n39
*198 n40
*199 n41
*200 n42
*201 n43
*202 n44
*203 n45
*204 n46
*205 n47
*206 n48
*207 n49
*208 n50
*209 n51
*210 n52
*211 n53
*212 n54
*213 n55
*214 n56
*215 n57
*216 n58
*217 n60
*218 n61
*219 n62
*220 n63
*221 n64
*222 n65
*223 n66
*224 n67
*225 n68
*226 n73
*227 n75
*228 n76
*229 n77
*230 n78
*231 n79
*232 n80
*233 n81
*234 n83
*235 n85
*236 n87
*237 n88
*238 n89
*239 n90
*240 n91
*241 n92
*242 n93
*243 n94
*244 n99
*245 popt_net_1
*246 popt_net_10
*247 popt_net_13
*248 popt_net_15
*249 popt_net_17
*250 popt_net_19
*251 popt_net_21
*252 popt_net_23
*253 popt_net_25
*254 popt_net_33
*255 popt_net_34
*256 popt_net_35
*257 popt_net_6
*258 popt_net_9
*259 ropt_net_42
*260 ropt_net_43
*261 ropt_net_44
*262 tmp_net36
*263 tmp_net37
*264 tmp_net38
*265 tmp_net39
*266 tmp_net40
*267 tmp_net41

*PORTS

*268 I
*269 I
*270 I
*271 I
*272 I
*273 I
*274 I
*275 I
*276 I
*277 I
*278 I
*279 I
*280 I
*281 I
*282 I
*283 I
*284 I
*285 I
*286 I
*287 I
*288 I
*289 I
*290 I
*291 I
*292 I
*293 I
*294 I
*295 I
*296 I
*297 I
*298 I
*299 I
*300 I
*301 I
*302 I
*303 I
*304 I
*305 I
*306 I
*307 I
*308 I
*309 I
*310 I
*311 I
*312 I
*313 I
*314 I
*315 I
*316 I
*317 I
*318 I
*319 I
*320 I
*321 I
*322 I
*323 I
*324 I
*325 I
*326 I
*327 I
*328 I
*329 I
*330 I
*331 I
*332 I
*333 O
*334 O
*335 O
*336 O
*337 O
*338 O
*339 O
*340 O
*341 O
*342 O
*343 O
*344 O
*345 O
*346 O
*347 O
*348 O
*349 O
*350 O
*351 O
*352 O
*353 O
*354 O
*355 O
*356 O
*357 O
*358 O
*359 O
*360 O
*361 O
*362 O
*363 O
*364 O
*365 O

*D_NET *1 3.97228

*CONN
*P *268 I *C 0.286 33.880
*I *517:B I *C 30.384 17.312

*CAP
1 *268 1.31125
2 *1:3 2.66103

*RES
1 *268 *1:3 84.3839
2 *517:B *1:3 1.0
3 *517:B *1:2 0.001
*END

*D_NET *2 0.886546

*CONN
*P *269 I *C 0.286 26.280
*I *518:B I *C 9.104 24.152

*CAP
1 *269 0.189526
2 *2:2 0.030995
3 *2:4 0.666025

*RES
1 *269 *2:4 20.1
2 *518:B *2:4 1.0
3 *518:B *2:3 0.001
4 *518:B *2:2 0.001
*END

*D_NET *3 0.62596

*CONN
*P *270 I *C 0.286 27.496
*I *519:B I *C 6.824 26.128

*CAP
1 *270 0.126878
2 *3:3 0.499082

*RES
1 *270 *3:3 14.8232
2 *519:B *3:3 1.0
3 *519:B *3:2 0.001
*END

*D_NET *4 0.512891

*CONN
*P *271 I *C 0.286 23.848
*I *520:B I *C 6.064 24.152

*CAP
1 *271 0.0960237
2 *4:2 0.030995
3 *4:4 0.385872

*RES
1 *271 *4:4 11.4143
2 *520:B *4:4 1.0
3 *520:B *4:3 0.001
4 *520:B *4:2 0.001
*END

*D_NET *5 1.52953

*CONN
*P *272 I *C 0.286 18.680
*I *521:B I *C 13.664 22.632

*CAP
1 *272 1.19215
2 *5:2 0.0254811
3 *5:4 0.311905

*RES
1 *272 *5:4 31.5
2 *521:B *5:4 1.0
3 *521:B *5:3 0.001
4 *521:B *5:2 0.001
*END

*D_NET *6 1.1134

*CONN
*P *273 I *C 0.286 15.640
*I *522:B I *C 8.648 20.808

*CAP
1 *273 0.462898
2 *6:2 0.0309959
3 *6:4 0.619508

*RES
1 *273 *6:4 24.7143
2 *522:B *6:4 1.0
3 *522:B *6:3 0.001
4 *522:B *6:2 0.001
*END

*D_NET *7 0.836213

*CONN
*P *274 I *C 0.286 16.856
*I *523:B I *C 5.760 20.808

*CAP
1 *274 0.377181
2 *7:2 0.030995
3 *7:4 0.428037

*RES
1 *274 *7:4 17.3857
2 *523:B *7:4 1.0
3 *523:B *7:3 0.001
4 *523:B *7:2 0.001
*END

*D_NET *8 0.713218

*CONN
*P *275 I *C 0.286 17.464
*I *393:A2 I *C 5.608 17.464
*I *426:A2 I *C 6.216 15.184

*CAP
1 *275 0.0280755
2 *393:A2 0.0225868
3 *426:A2 0.164848
4 *8:5 0.497708

*RES
1 *275 *8:5 9.40536
2 *393:A2 *8:5 2.0
3 *393:A2 *8:3 0.001
4 *426:A2 *8:5 6.76429
5 *426:A2 *8:4 0.001
*END

*D_NET *9 1.79829

*CONN
*P *276 I *C 0.286 15.032
*I *524:B I *C 15.488 24.152

*CAP
1 *276 0.682932
2 *9:2 0.030995
3 *9:4 1.08436

*RES
1 *276 *9:4 43.9857
2 *524:B *9:4 1.0
3 *524:B *9:3 0.001
4 *524:B *9:2 0.001
*END

*D_NET *10 2.36347

*CONN
*P *277 I *C 0.286 8.952
*I *525:B I *C 15.336 27.344

*CAP
1 *277 1.32697
2 *10:3 1.0365

*RES
1 *277 *10:3 60.2714
2 *525:B *10:3 1.0
3 *525:B *10:2 0.001
*END

*D_NET *11 2.65909

*CONN
*P *278 I *C 0.286 8.344
*I *526:B I *C 13.968 29.320

*CAP
1 *278 0.758448
2 *11:2 0.025481
3 *11:4 1.87516

*RES
1 *278 *11:4 62.9857
2 *526:B *11:4 1.0
3 *526:B *11:3 0.001
4 *526:B *11:2 0.001
*END

*D_NET *12 0.873819

*CONN
*P *279 I *C 0.286 30.840
*I *527:B I *C 11.232 30.688

*CAP
1 *279 0.32599
2 *12:3 0.547829

*RES
1 *279 *12:3 20.551
2 *527:B *12:3 1.0
3 *527:B *12:2 0.001
*END

*D_NET *13 3.73235

*CONN
*P *280 I *C 0.286 6.824
*I *528:B I *C 18.680 30.840

*CAP
1 *280 1.1747
2 *13:2 0.0309951
3 *13:4 2.52666

*RES
1 *280 *13:4 77.9143
2 *528:B *13:4 1.0
3 *528:B *13:3 0.001
4 *528:B *13:2 0.001
*END

*D_NET *14 2.01265

*CONN
*P *281 I *C 0.286 28.712
*I *529:B I *C 23.696 30.688

*CAP
1 *281 0.39678
2 *14:3 1.61587

*RES
1 *281 *14:3 46.3839
2 *529:B *14:3 1.0
3 *529:B *14:2 0.001
*END

*D_NET *15 4.17779

*CONN
*P *282 I *C 0.286 7.736
*I *391:A2 I *C 25.470 30.812
*I *421:A2 I *C 26.888 31.600

*CAP
1 *282 1.06843
2 *421:A2 0.0815264
3 *15:5 2.98598
4 *15:6 0.0418462
5 *15:8 0.0

*RES
1 *282 *15:5 86.3607
2 *391:A2 *15:8 0.001
3 *421:A2 *15:4 0.001
4 *421:A2 *15:5 5.76607
5 *15:3 *15:6 0.001
6 *15:5 *15:6 2.20714
7 *15:6 *15:8 0.001
8 *15:7 *15:8 0.001
*END

*D_NET *16 2.08778

*CONN
*P *283 I *C 0.286 14.120
*I *530:B I *C 23.392 24.000

*CAP
1 *283 0.761243
2 *16:3 1.32654

*RES
1 *283 *16:3 60.1688
2 *530:B *16:2 0.001
3 *530:B *16:3 1.29917
*END

*D_NET *17 3.1228

*CONN
*P *284 I *C 0.286 6.216
*I *531:B I *C 18.376 24.152

*CAP
1 *284 1.94862
2 *17:2 0.0318209
3 *17:4 1.14236

*RES
1 *284 *17:4 65.6446
2 *531:B *17:4 1.0
3 *531:B *17:3 0.001
4 *531:B *17:2 0.001
*END

*D_NET *18 1.76537

*CONN
*P *285 I *C 0.286 16.248
*I *532:B I *C 20.048 20.656

*CAP
1 *285 0.413285
2 *18:3 1.35208

*RES
1 *285 *18:3 43.6696
2 *532:B *18:3 1.0
3 *532:B *18:2 0.001
*END

*D_NET *19 1.46705

*CONN
*P *286 I *C 0.286 24.456
*I *533:B I *C 17.008 20.808

*CAP
1 *286 0.247615
2 *19:2 0.030995
3 *19:4 1.18844

*RES
1 *286 *19:4 36.9286
2 *533:B *19:4 1.0
3 *533:B *19:3 0.001
4 *533:B *19:2 0.001
*END

*D_NET *20 1.79065

*CONN
*P *287 I *C 0.286 2.568
*I *534:B I *C 15.184 13.968

*CAP
1 *287 0.77899
2 *20:3 1.01166

*RES
1 *287 *20:3 47.5143
2 *534:B *20:3 1.0
3 *534:B *20:2 0.001
*END

*D_NET *21 0.977552

*CONN
*P *288 I *C 0.286 18.072
*I *389:A2 I *C 7.736 17.464
*I *420:A2 I *C 8.648 15.184

*CAP
1 *288 0.0944153
2 *420:A2 0.190748
3 *21:4 0.692389
4 *21:5 0.0

*RES
1 *288 *21:4 15.0946
2 *389:A2 *21:4 1.0
3 *389:A2 *21:3 0.001
4 *420:A2 *21:5 0.001
5 *420:A2 *21:4 7.30714
*END

*D_NET *22 3.5648

*CONN
*P *289 I *C 0.286 34.488
*I *535:B I *C 19.896 15.944

*CAP
1 *289 0.851326
2 *22:2 0.0254811
3 *22:4 2.68799

*RES
1 *289 *22:4 68.6411
2 *535:B *22:4 1.0
3 *535:B *22:3 0.001
4 *535:B *22:2 0.001
*END

*D_NET *23 2.11593

*CONN
*P *290 I *C 0.286 28.104
*I *536:B I *C 11.992 13.968

*CAP
1 *290 0.612884
2 *23:3 1.50304

*RES
1 *290 *23:3 47.2429
2 *536:B *23:3 1.0
3 *536:B *23:2 0.001
*END

*D_NET *24 0.447749

*CONN
*P *291 I *C 0.286 11.688
*I *537:B I *C 5.608 12.600

*CAP
1 *291 0.0971727
2 *24:2 0.026307
3 *24:4 0.324269

*RES
1 *291 *24:4 11.8375
2 *537:B *24:4 1.0
3 *537:B *24:3 0.001
4 *537:B *24:2 0.001
*END

*D_NET *25 1.53743

*CONN
*P *292 I *C 0.286 4.696
*I *387:A2 I *C 8.800 14.120
*I *416:A2 I *C 10.168 14.880

*CAP
1 *292 0.329229
2 *387:A2 0.0240069
3 *416:A2 0.0441771
4 *25:5 1.14001

*RES
1 *292 *25:5 32.5536
2 *387:A2 *25:5 1.79917
3 *387:A2 *25:3 0.001
4 *416:A2 *25:5 4.63571
5 *416:A2 *25:4 0.001
*END

*D_NET *26 0.999243

*CONN
*P *293 I *C 0.286 25.672
*I *414:A I *C 12.600 25.520

*CAP
1 *293 0.0761782
2 *26:3 0.923065

*RES
1 *293 *26:3 23.1902
2 *414:A *26:3 1.0
3 *414:A *26:2 0.001
*END

*D_NET *27 0.92233

*CONN
*P *294 I *C 0.286 29.624
*I *413:A I *C 11.232 28.864

*CAP
1 *294 0.104057
2 *27:3 0.818273

*RES
1 *294 *27:3 21.3375
2 *413:A *27:2 0.001
3 *413:A *27:3 1.29917
*END

*D_NET *28 0.991779

*CONN
*P *295 I *C 0.286 30.232
*I *404:A2 I *C 7.584 30.840
*I *405:A2 I *C 8.952 28.560

*CAP
1 *295 0.0762191
2 *404:A2 0.0368613
3 *405:A2 0.184118
4 *28:5 0.694581

*RES
1 *295 *28:5 13.4188
2 *404:A2 *28:3 0.001
3 *404:A2 *28:5 2.47679
4 *405:A2 *28:4 0.001
5 *405:A2 *28:5 7.925
*END

*D_NET *29 1.79361

*CONN
*P *296 I *C 0.286 35.096
*I *406:B I *C 9.408 19.440

*CAP
1 *296 0.373846
2 *29:3 1.41976

*RES
1 *296 *29:3 44.7554
2 *406:B *29:3 1.0
3 *406:B *29:2 0.001
*END

*D_NET *30 1.47136

*CONN
*P *297 I *C 0.286 3.480
*I *401:A2 I *C 10.624 11.840
*I *482:A2 I *C 9.104 12.600

*CAP
1 *297 0.59292
2 *401:A2 0.0621574
3 *482:A2 0.0198882
4 *30:5 0.796395

*RES
1 *297 *30:5 30.3375
2 *401:A2 *30:4 0.001
3 *401:A2 *30:5 5.39202
4 *482:A2 *30:3 0.001
5 *482:A2 *30:5 3.23131
*END

*D_NET *31 0.89462

*CONN
*P *298 I *C 0.286 5.608
*I *385:A3 I *C 7.280 9.864
*I *386:A3 I *C 5.943 7.584

*CAP
1 *298 0.175553
2 *385:A3 0.0832824
3 *386:A3 0.0380345
4 *31:4 0.59775

*RES
1 *298 *31:4 12.9982
2 *385:A3 *31:3 0.001
3 *385:A3 *31:4 9.20714
4 *386:A3 *31:4 1.87371
*END

*D_NET *32 1.46086

*CONN
*P *299 I *C 0.286 1.960
*I *383:A1 I *C 6.064 5.608
*I *385:A1 I *C 7.128 9.104
*I *386:A2 I *C 6.216 7.584
*I *395:A2 I *C 7.432 5.152

*CAP
1 *299 0.302877
2 *385:A1 0.0532118
3 *386:A2 0.107949
4 *395:A2 0.0145649
5 *32:6 0.268084
6 *32:8 0.401742
7 *32:11 0.312431

*RES
1 *299 *32:8 17.6125
2 *383:A1 *32:6 1.0
3 *383:A1 *32:5 0.001
4 *385:A1 *32:11 8.58929
5 *385:A1 *32:9 0.001
6 *386:A2 *32:6 8.782
7 *386:A2 *32:7 0.001
8 *395:A2 *32:11 1.6625
9 *395:A2 *32:10 0.001
10 *32:6 *32:8 3.00586
11 *32:8 *32:11 0.889286
*END

*D_NET *33 1.83019

*CONN
*P *300 I *C 33.880 36.466
*I *517:A I *C 30.840 17.920

*CAP
1 *300 0.34524
2 *33:3 1.48495

*RES
1 *300 *33:3 39.3589
2 *517:A *33:3 1.0
3 *517:A *33:2 0.001
*END

*D_NET *34 0.893517

*CONN
*P *301 I *C 10.472 36.466
*I *518:A I *C 9.560 24.608

*CAP
1 *301 0.0917565
2 *34:3 0.80176

*RES
1 *301 *34:3 23.0089
2 *518:A *34:3 1.0
3 *518:A *34:2 0.001
*END

*D_NET *35 1.36116

*CONN
*P *302 I *C 11.992 36.466
*I *519:A I *C 7.280 25.520

*CAP
1 *302 0.277072
2 *35:3 1.08409

*RES
1 *302 *35:3 28.1661
2 *519:A *35:3 1.0
3 *519:A *35:2 0.001
*END

*D_NET *36 1.29684

*CONN
*P *303 I *C 2.568 36.466
*I *520:A I *C 6.520 24.608

*CAP
1 *303 0.349153
2 *36:3 0.947687

*RES
1 *303 *36:3 28.4375
2 *520:A *36:3 1.0
3 *520:A *36:2 0.001
*END

*D_NET *37 2.69335

*CONN
*P *304 I *C 31.144 36.466
*I *521:A I *C 13.208 22.176

*CAP
1 *304 0.912574
2 *37:3 1.78078

*RES
1 *304 *37:3 58.9661
2 *521:A *37:3 1.0
3 *521:A *37:2 0.001
*END

*D_NET *38 3.45371

*CONN
*P *305 I *C 26.888 36.466
*I *522:A I *C 9.104 21.264

*CAP
1 *305 1.08113
2 *38:3 2.37258

*RES
1 *305 *38:3 59.7161
2 *522:A *38:3 1.0
3 *522:A *38:2 0.001
*END

*D_NET *39 1.65629

*CONN
*P *306 I *C 11.384 36.466
*I *523:A I *C 6.216 21.264

*CAP
1 *306 0.0274413
2 *523:A 0.436378
3 *39:2 1.19247
4 *39:3 0.0

*RES
1 *306 *39:2 20.9036
2 *523:A *39:3 0.001
3 *523:A *39:2 17.4804
*END

*D_NET *40 1.75221

*CONN
*P *307 I *C 5.912 36.466
*I *393:A1 I *C 5.760 17.768
*I *426:A1 I *C 6.064 15.944

*CAP
1 *307 0.0595279
2 *426:A1 0.190459
3 *40:3 1.50222
4 *40:5 0.0

*RES
1 *307 *40:3 34.1361
2 *393:A1 *40:4 0.001
3 *393:A1 *40:3 1.0
4 *426:A1 *40:5 0.001
5 *426:A1 *40:3 8.79854
*END

*D_NET *41 1.71695

*CONN
*P *308 I *C 6.520 36.466
*I *524:A I *C 15.944 24.608

*CAP
1 *308 0.785512
2 *41:3 0.931435

*RES
1 *308 *41:3 39.0125
2 *524:A *41:3 1.0
3 *524:A *41:2 0.001
*END

*D_NET *42 1.57156

*CONN
*P *309 I *C 23.544 36.466
*I *525:A I *C 15.792 27.952

*CAP
1 *309 0.51342
2 *42:3 1.05814

*RES
1 *309 *42:3 29.9482
2 *525:A *42:3 1.0
3 *525:A *42:2 0.001
*END

*D_NET *43 0.659616

*CONN
*P *310 I *C 15.944 36.466
*I *526:A I *C 14.424 28.864

*CAP
1 *310 0.121025
2 *43:3 0.538591

*RES
1 *310 *43:3 16.4946
2 *526:A *43:3 1.0
3 *526:A *43:2 0.001
*END

*D_NET *44 0.764107

*CONN
*P *311 I *C 14.424 36.466
*I *527:A I *C 11.688 31.296

*CAP
1 *311 0.181241
2 *44:3 0.582866

*RES
1 *311 *44:3 14.3232
2 *527:A *44:3 1.0
3 *527:A *44:2 0.001
*END

*D_NET *45 0.468627

*CONN
*P *312 I *C 18.072 36.466
*I *528:A I *C 18.224 31.296

*CAP
1 *312 0.0449355
2 *45:3 0.423692

*RES
1 *312 *45:3 9.63393
2 *528:A *45:2 0.001
3 *528:A *45:3 1.29917
*END

*D_NET *46 0.943648

*CONN
*P *313 I *C 27.496 36.466
*I *529:A I *C 23.240 31.296

*CAP
1 *313 0.389653
2 *46:3 0.553994

*RES
1 *313 *46:3 17.5804
2 *529:A *46:3 1.0
3 *529:A *46:2 0.001
*END

*D_NET *47 0.850954

*CONN
*P *314 I *C 28.104 36.466
*I *391:A1 I *C 25.672 31.144
*I *421:A1 I *C 26.736 30.840

*CAP
1 *314 0.118941
2 *391:A1 0.138936
3 *47:5 0.593077

*RES
1 *314 *47:5 12.6946
2 *391:A1 *47:5 4.05
3 *391:A1 *47:3 0.001
4 *421:A1 *47:5 1.0
5 *421:A1 *47:4 0.001
*END

*D_NET *48 1.60093

*CONN
*P *315 I *C 28.712 36.466
*I *530:A I *C 23.848 24.608

*CAP
1 *315 0.299452
2 *48:3 1.30148

*RES
1 *315 *48:3 30.0661
2 *530:A *48:3 1.0
3 *530:A *48:2 0.001
*END

*D_NET *49 1.34808

*CONN
*P *316 I *C 15.032 36.466
*I *531:A I *C 18.832 24.608

*CAP
1 *316 0.372783
2 *49:3 0.975294

*RES
1 *316 *49:3 28.7732
2 *531:A *49:3 1.0
3 *531:A *49:2 0.001
*END

*D_NET *50 2.01815

*CONN
*P *317 I *C 25.368 36.466
*I *532:A I *C 20.517 21.264

*CAP
1 *317 0.3296
2 *532:A 0.0323547
3 *50:2 1.6562

*RES
1 *317 *50:2 35.7661
2 *532:A *50:2 1.2575
*END

*D_NET *51 2.17695

*CONN
*P *318 I *C 25.976 36.466
*I *533:A I *C 17.477 21.264

*CAP
1 *318 0.710141
2 *533:A 0.0327705
3 *51:2 1.43404

*RES
1 *318 *51:2 43.0839
2 *533:A *51:2 1.2575
*END

*D_NET *52 3.79653

*CONN
*P *319 I *C 35.400 36.466
*I *534:A I *C 15.640 14.576

*CAP
1 *319 0.0274413
2 *534:A 1.0716
3 *52:2 2.69749
4 *52:3 0.0

*RES
1 *319 *52:2 3.15357
2 *534:A *52:2 72.4268
3 *534:A *52:3 0.001
*END

*D_NET *53 1.73281

*CONN
*P *320 I *C 8.040 36.466
*I *389:A1 I *C 7.888 17.768
*I *420:A1 I *C 8.496 15.944

*CAP
1 *320 0.343376
2 *389:A1 0.0341907
3 *420:A1 0.143554
4 *53:5 1.21169

*RES
1 *320 *53:5 33.8339
2 *389:A1 *53:5 2.11786
3 *389:A1 *53:3 0.001
4 *420:A1 *53:5 4.85988
5 *420:A1 *53:4 0.001
*END

*D_NET *54 3.06139

*CONN
*P *321 I *C 32.360 36.466
*I *535:A I *C 20.352 15.488

*CAP
1 *321 0.956374
2 *54:3 2.10502

*RES
1 *321 *54:3 60.8018
2 *535:A *54:3 1.0
3 *535:A *54:2 0.001
*END

*D_NET *55 1.844

*CONN
*P *322 I *C 13.816 36.466
*I *536:A I *C 12.448 14.576

*CAP
1 *322 0.540542
2 *55:3 1.30346

*RES
1 *322 *55:3 42.3446
2 *536:A *55:3 1.0
3 *536:A *55:2 0.001
*END

*D_NET *56 2.09103

*CONN
*P *323 I *C 1.960 36.466
*I *537:A I *C 6.064 12.144

*CAP
1 *323 0.0262418
2 *537:A 0.218404
3 *56:2 1.84638
4 *56:3 0.0

*RES
1 *323 *56:2 7.76786
2 *537:A *56:3 0.001
3 *537:A *56:2 44.1982
*END

*D_NET *57 2.95936

*CONN
*P *324 I *C 30.536 36.466
*I *387:A1 I *C 8.952 14.424
*I *416:A1 I *C 10.016 14.120

*CAP
1 *324 0.887186
2 *387:A1 0.120008
3 *416:A1 0.0295773
4 *57:5 1.92259

*RES
1 *324 *57:5 77.0446
2 *387:A1 *57:3 0.001
3 *387:A1 *57:5 3.475
4 *416:A1 *57:4 0.001
5 *416:A1 *57:5 2.1456
*END

*D_NET *58 1.93829

*CONN
*P *325 I *C 24.760 36.466
*I *414:B I *C 12.144 25.976

*CAP
1 *325 0.85318
2 *58:2 0.0254811
3 *58:4 1.05963

*RES
1 *325 *58:4 42.1179
2 *414:B *58:4 1.0
3 *414:B *58:3 0.001
4 *414:B *58:2 0.001
*END

*D_NET *59 1.43448

*CONN
*P *326 I *C 18.984 36.466
*I *413:B I *C 10.776 29.472

*CAP
1 *326 0.393077
2 *59:3 1.0414

*RES
1 *326 *59:3 27.9589
2 *413:B *59:3 1.0
3 *413:B *59:2 0.001
*END

*D_NET *60 2.96786

*CONN
*P *327 I *C 36.312 36.466
*I *404:A1 I *C 7.736 31.144
*I *405:A1 I *C 8.800 29.320

*CAP
1 *327 1.68548
2 *404:A1 0.19301
3 *405:A1 0.191816
4 *60:5 0.897552

*RES
1 *327 *60:5 58.3268
2 *404:A1 *60:5 4.01786
3 *404:A1 *60:3 0.001
4 *405:A1 *60:5 5.26786
5 *405:A1 *60:4 0.001
*END

*D_NET *61 3.68941

*CONN
*P *328 I *C 33.272 36.466
*I *406:A I *C 9.864 18.832

*CAP
1 *328 1.96204
2 *61:3 1.72737

*RES
1 *328 *61:3 73.4946
2 *406:A *61:3 1.0
3 *406:A *61:2 0.001
*END

*D_NET *62 3.52458

*CONN
*P *329 I *C 29.928 36.466
*I *401:A1 I *C 10.472 12.600
*I *482:A1 I *C 9.256 12.296

*CAP
1 *329 1.03781
2 *401:A1 0.0580983
3 *482:A1 0.0884015
4 *62:5 2.34027

*RES
1 *329 *62:5 78.6839
2 *401:A1 *62:5 2.70536
3 *401:A1 *62:4 0.001
4 *482:A1 *62:5 3.00714
5 *482:A1 *62:3 0.001
*END

*D_NET *63 3.32425

*CONN
*P *330 I *C 24.152 36.466
*I *400:A1 I *C 11.688 9.104
*I *460:A2 I *C 15.184 9.256
*I *467:A I *C 14.728 10.776

*CAP
1 *330 1.82324
2 *400:A1 0.261481
3 *460:A2 0.0298954
4 *467:A 0.0151188
5 *63:7 0.220395
6 *63:8 0.974117

*RES
1 *330 *63:8 63.8196
2 *400:A1 *63:7 6.23214
3 *400:A1 *63:4 0.001
4 *460:A2 *63:7 2.43214
5 *460:A2 *63:6 0.001
6 *467:A *63:8 1.5
7 *467:A *63:5 0.001
8 *63:7 *63:8 3.28929
*END

*D_NET *64 3.86268

*CONN
*P *331 I *C 34.792 36.466
*I *396:A1 I *C 12.904 5.608
*I *453:A2 I *C 15.640 5.152

*CAP
1 *331 1.80937
2 *396:A1 0.218019
3 *453:A2 0.0300015
4 *64:5 1.80529

*RES
1 *331 *64:5 89.5089
2 *396:A1 *64:5 5.68929
3 *396:A1 *64:3 0.001
4 *453:A2 *64:5 2.61786
5 *453:A2 *64:4 0.001
*END

*D_NET *65 1.11905

*CONN
*P *332 I *C 0.286 4.088
*I *383:A2 I *C 5.912 5.912
*I *385:A2 I *C 6.824 9.256
*I *386:A1 I *C 6.368 7.432
*I *395:A1 I *C 7.280 5.912

*CAP
1 *332 0.180795
2 *385:A2 0.0562853
3 *386:A1 0.0338244
4 *395:A1 0.00408042
5 *65:6 0.397492
6 *65:10 0.146925
7 *65:11 0.299646

*RES
1 *332 *65:6 13.8125
2 *383:A2 *65:6 1.0
3 *383:A2 *65:5 0.001
4 *385:A2 *65:8 0.001
5 *385:A2 *65:11 7.775
6 *386:A1 *65:7 0.001
7 *386:A1 *65:10 4.81702
8 *395:A1 *65:9 0.001
9 *395:A1 *65:11 1.61786
10 *65:6 *65:10 0.346429
11 *65:10 *65:11 0.889286
*END

*D_NET *66 0.388598

*CONN
*P *333 O *C 37.682 15.640
*I *461:SO O *C 32.664 15.792 *D HADDX1_RVT

*CAP
1 *333 0.0644394
2 *66:3 0.324158

*RES
1 *333 *66:3 10.1617
2 *461:SO *66:3 1.0
3 *461:SO *66:2 0.001
*END

*D_NET *67 0.814479

*CONN
*P *334 O *C 37.682 1.960
*I *440:Y O *C 32.664 10.472 *D OA21X1_RVT

*CAP
1 *334 0.507215
2 *67:3 0.307264

*RES
1 *334 *67:3 24.8661
2 *440:Y *67:3 1.0
3 *440:Y *67:2 0.001
*END

*D_NET *68 0.789829

*CONN
*P *335 O *C 37.682 7.432
*I *431:Y O *C 29.928 10.472 *D OA21X1_RVT

*CAP
1 *335 0.248972
2 *68:3 0.540858

*RES
1 *335 *68:3 19.9804
2 *431:Y *68:3 1.0
3 *431:Y *68:2 0.001
*END

*D_NET *69 0.799316

*CONN
*P *336 O *C 37.682 10.776
*I *456:Y O *C 28.256 11.992 *D OA21X1_RVT

*CAP
1 *336 0.147216
2 *69:5 0.652101

*RES
1 *336 *69:5 19.7367
2 *456:Y *69:5 1.0
3 *456:Y *69:4 0.001
4 *456:Y *69:3 0.001
5 *69:2 *69:3 0.001
*END

*D_NET *70 1.39032

*CONN
*P *337 O *C 37.682 27.192
*I *458:Y O *C 27.040 21.494 *D OA21X1_RVT

*CAP
1 *337 0.4013
2 *458:Y 0.0337986
3 *70:2 0.955217

*RES
1 *337 *70:2 30.5554
2 *458:Y *70:2 0.001
*END

*D_NET *71 1.62384

*CONN
*P *338 O *C 37.682 27.800
*I *449:Y O *C 25.591 20.504 *D OA21X1_RVT

*CAP
1 *338 0.429528
2 *71:2 1.19431

*RES
1 *338 *71:2 36.1804
2 *449:Y *71:2 0.102
*END

*D_NET *72 1.6197

*CONN
*P *339 O *C 37.682 17.768
*I *429:Y O *C 20.200 18.072 *D OA21X1_RVT

*CAP
1 *339 0.309156
2 *72:5 1.31055

*RES
1 *339 *72:5 32.2696
2 *429:Y *72:5 1.0
3 *429:Y *72:4 0.001
4 *429:Y *72:3 0.001
5 *72:2 *72:3 0.001
*END

*D_NET *73 1.82427

*CONN
*P *340 O *C 37.682 2.872
*I *371:Y O *C 24.152 15.258 *D OA21X1_RVT

*CAP
1 *340 0.867638
2 *371:Y 0.0293787
3 *73:2 0.927255

*RES
1 *340 *73:2 47.7
2 *371:Y *73:2 0.001
*END

*D_NET *74 1.24643

*CONN
*P *341 O *C 37.682 28.408
*I *452:Y O *C 23.696 26.280 *D OA21X1_RVT

*CAP
1 *341 0.301161
2 *74:3 0.945268

*RES
1 *341 *74:3 29.2839
2 *452:Y *74:3 1.0
3 *452:Y *74:2 0.001
*END

*D_NET *75 1.77742

*CONN
*P *342 O *C 37.682 29.016
*I *425:Y O *C 22.784 29.776 *D OA21X1_RVT

*CAP
1 *342 0.11862
2 *75:5 1.6588

*RES
1 *342 *75:5 28.4696
2 *425:Y *75:5 1.0
3 *425:Y *75:4 0.001
4 *425:Y *75:3 0.001
5 *75:2 *75:3 0.001
*END

*D_NET *76 2.1712

*CONN
*P *343 O *C 37.682 29.624
*I *442:Y O *C 20.628 29.883 *D OA21X1_RVT

*CAP
1 *343 0.0829138
2 *76:2 0.0308112
3 *76:4 2.05748

*RES
1 *343 *76:4 31.4554
2 *442:Y *76:3 0.001
3 *76:2 *76:3 0.001
4 *76:3 *76:4 1.0
*END

*D_NET *77 1.14324

*CONN
*P *344 O *C 37.682 26.584
*I *447:Y O *C 24.760 28.712 *D OA21X1_RVT

*CAP
1 *344 0.213043
2 *77:5 0.930199

*RES
1 *344 *77:5 27.3839
2 *447:Y *77:5 1.0
3 *447:Y *77:4 0.001
4 *447:Y *77:3 0.001
5 *77:2 *77:3 0.001
*END

*D_NET *78 1.97811

*CONN
*P *345 O *C 37.682 5.912
*I *423:Y O *C 32.664 27.192 *D OA21X1_RVT

*CAP
1 *345 0.382313
2 *78:3 1.5958

*RES
1 *345 *78:3 47.4696
2 *423:Y *78:3 1.0
3 *423:Y *78:2 0.001
*END

*D_NET *79 0.474668

*CONN
*P *346 O *C 37.682 30.232
*I *512:Y O *C 32.512 30.186 *D AOI21X1_RVT

*CAP
1 *346 0.147401
2 *79:5 0.327267
3 *79:6 0.0

*RES
1 *346 *79:5 9.9375
2 *512:Y *79:2 0.001
3 *79:2 *79:3 0.001
4 *79:3 *79:6 0.001
5 *79:4 *79:6 0.001
6 *79:5 *79:6 1.0
*END

*D_NET *80 0.890723

*CONN
*P *347 O *C 37.682 31.448
*I *370:Y O *C 30.536 28.104 *D OA21X1_RVT

*CAP
1 *347 0.276388
2 *80:5 0.614335

*RES
1 *347 *80:5 19.2411
2 *370:Y *80:5 1.0
3 *370:Y *80:4 0.001
4 *370:Y *80:3 0.001
5 *80:2 *80:3 0.001
*END

*D_NET *81 1.1213

*CONN
*P *348 O *C 37.682 32.056
*I *437:Y O *C 30.992 26.280 *D OA21X1_RVT

*CAP
1 *348 0.349229
2 *81:3 0.77207

*RES
1 *348 *81:3 22.7696
2 *437:Y *81:3 1.0
3 *437:Y *81:2 0.001
*END

*D_NET *82 1.13521

*CONN
*P *349 O *C 37.682 32.664
*I *369:Y O *C 32.512 24.760 *D OA21X1_RVT

*CAP
1 *349 0.258953
2 *82:5 0.876259

*RES
1 *349 *82:5 24.0795
2 *369:Y *82:5 1.0
3 *369:Y *82:4 0.001
4 *369:Y *82:3 0.001
5 *82:2 *82:3 0.001
*END

*D_NET *83 1.71435

*CONN
*P *350 O *C 37.682 34.488
*I *454:Y O *C 32.512 19.592 *D OA21X1_RVT

*CAP
1 *350 0.314427
2 *83:3 1.39992

*RES
1 *350 *83:3 36.3411
2 *454:Y *83:3 1.0
3 *454:Y *83:2 0.001
*END

*D_NET *84 0.644285

*CONN
*P *351 O *C 37.682 19.592
*I *511:Y O *C 30.204 19.864 *D AOI21X1_RVT

*CAP
1 *351 0.174017
2 *84:5 0.470269
3 *84:6 0.0

*RES
1 *351 *84:5 14.3554
2 *511:Y *84:3 0.001
3 *511:Y *84:2 0.27
4 *84:2 *84:3 0.0799087
5 *84:2 *84:6 0.001
6 *84:4 *84:6 0.001
7 *84:5 *84:6 1.0
*END

*D_NET *85 0.915441

*CONN
*P *352 O *C 37.682 6.824
*I *433:Y O *C 28.256 10.472 *D OA21X1_RVT

*CAP
1 *352 0.280054
2 *85:3 0.635387

*RES
1 *352 *85:3 24.3232
2 *433:Y *85:2 0.001
3 *433:Y *85:3 1.29917
*END

*D_NET *86 0.840359

*CONN
*P *353 O *C 37.682 10.168
*I *368:Y O *C 25.520 10.472 *D OA21X1_RVT

*CAP
1 *353 0.0810181
2 *86:3 0.759341

*RES
1 *353 *86:3 22.9938
2 *368:Y *86:3 1.0
3 *368:Y *86:2 0.001
*END

*D_NET *87 1.58334

*CONN
*P *354 O *C 37.682 20.200
*I *510:Y O *C 24.608 13.466 *D AOI21X1_RVT

*CAP
1 *354 0.528458
2 *87:5 1.05488
3 *87:6 0.0

*RES
1 *354 *87:5 35.7982
2 *510:Y *87:2 0.001
3 *87:2 *87:3 0.001
4 *87:3 *87:6 0.001
5 *87:4 *87:6 0.001
6 *87:5 *87:6 1.0
*END

*D_NET *88 1.3685

*CONN
*P *355 O *C 37.682 3.480
*I *419:Y O *C 23.392 8.648 *D OA21X1_RVT

*CAP
1 *355 0.42163
2 *88:5 0.946871

*RES
1 *355 *88:5 35.2554
2 *419:Y *88:5 1.0
3 *419:Y *88:4 0.001
4 *419:Y *88:3 0.001
5 *88:2 *88:3 0.001
*END

*D_NET *89 1.57488

*CONN
*P *356 O *C 37.682 11.384
*I *444:Y O *C 20.048 11.384 *D OA21X1_RVT

*CAP
1 *356 0.269894
2 *89:5 1.30499

*RES
1 *356 *89:5 32.1946
2 *444:Y *89:5 1.0
3 *444:Y *89:4 0.001
4 *444:Y *89:3 0.001
5 *89:2 *89:3 0.001
*END

*D_NET *90 1.87139

*CONN
*P *357 O *C 37.682 23.240
*I *367:Y O *C 18.832 16.312 *D OA21X1_RVT

*CAP
1 *357 0.530246
2 *90:2 1.34114

*RES
1 *357 *90:2 47.1125
2 *367:Y *90:2 0.42
*END

*D_NET *91 1.93861

*CONN
*P *358 O *C 37.682 8.040
*I *435:Y O *C 17.768 18.680 *D OA21X1_RVT

*CAP
1 *358 0.666979
2 *91:5 1.27163

*RES
1 *358 *91:5 55.6768
2 *435:Y *91:5 1.0
3 *435:Y *91:4 0.001
4 *435:Y *91:3 0.001
5 *91:2 *91:3 0.001
*END

*D_NET *92 2.2016

*CONN
*P *359 O *C 37.682 33.880
*I *366:Y O *C 17.312 22.936 *D OA21X1_RVT

*CAP
1 *359 0.500002
2 *92:3 1.7016

*RES
1 *359 *92:3 56.4268
2 *366:Y *92:3 1.0
3 *366:Y *92:2 0.001
*END

*D_NET *93 2.24636

*CONN
*P *360 O *C 37.682 35.096
*I *409:Y O *C 14.728 24.760 *D OA21X1_RVT

*CAP
1 *360 0.0253848
2 *409:Y 0.90446
3 *93:4 1.31652
4 *93:5 0.0

*RES
1 *360 *93:4 5.325
2 *409:Y *93:4 55.8268