*SPEF "IEEE 1481-1999"
*DESIGN "han_carlson_32"
*DATE "Fri May 22 11:04:32 2026"
*VENDOR "Synopsys Inc."
*PROGRAM "StarRC"
*VERSION "U-2022.12-SP3"
*DESIGN_FLOW "PIN_CAP NONE" "NAME_SCOPE LOCAL"
*DIVIDER /
*DELIMITER :
*BUS_DELIMITER []
*T_UNIT 1.0 NS
*C_UNIT 1.0 FF
*R_UNIT 1.0 OHM
*L_UNIT 1.0 HENRY

// COMMENTS

// CORNER_NAME 
// OPERATING_TEMPERATURE 25
// GLOBAL_TEMPERATURE 25
// TCAD_GRD_FILE /home2/synopsys/libraries/SAED32_EDK/tech/starrc/nominal/saed32nm_1p9m_nominal.nxtgrd
//   TCAD_TIME_STAMP Wed Mar 16 14:34:54 2011
//   TCADGRD_VERSION 72
// galaxy_comments_begin
//   local_nodeid
// galaxy_comments_end

*NAME_MAP
*298 A[31]
*299 A[30]
*300 A[29]
*301 A[28]
*302 A[27]
*303 A[26]
*304 A[25]
*305 A[24]
*306 A[23]
*307 A[22]
*308 A[21]
*309 A[20]
*310 A[19]
*311 A[18]
*312 A[17]
*313 A[16]
*314 A[15]
*315 A[14]
*316 A[13]
*317 A[12]
*318 A[11]
*319 A[10]
*320 A[9]
*321 A[8]
*322 A[7]
*323 A[6]
*324 A[5]
*325 A[4]
*326 A[3]
*327 A[2]
*328 A[1]
*329 A[0]
*330 B[31]
*331 B[30]
*332 B[29]
*333 B[28]
*334 B[27]
*335 B[26]
*336 B[25]
*337 B[24]
*338 B[23]
*339 B[22]
*340 B[21]
*341 B[20]
*342 B[19]
*343 B[18]
*344 B[17]
*345 B[16]
*346 B[15]
*347 B[14]
*348 B[13]
*349 B[12]
*350 B[11]
*351 B[10]
*352 B[9]
*353 B[8]
*354 B[7]
*355 B[6]
*356 B[5]
*357 B[4]
*358 B[3]
*359 B[2]
*360 B[1]
*361 B[0]
*362 Cin
*363 Sum[31]
*364 Sum[30]
*365 Sum[29]
*366 Sum[28]
*367 Sum[27]
*368 Sum[26]
*369 Sum[25]
*370 Sum[24]
*371 Sum[23]
*372 Sum[22]
*373 Sum[21]
*374 Sum[20]
*375 Sum[19]
*376 Sum[18]
*377 Sum[17]
*378 Sum[16]
*379 Sum[15]
*380 Sum[14]
*381 Sum[13]
*382 Sum[12]
*383 Sum[11]
*384 Sum[10]
*385 Sum[9]
*386 Sum[8]
*387 Sum[7]
*388 Sum[6]
*389 Sum[5]
*390 Sum[4]
*391 Sum[3]
*392 Sum[2]
*393 Sum[1]
*394 Sum[0]
*395 Cout
*396 HFSBUF_1091_2
*397 HFSBUF_154_3
*398 HFSBUF_1602_5
*399 HFSBUF_17_0
*400 HFSBUF_24_4
*401 HFSINV_1647_1
*402 U202
*403 U203
*404 U204
*405 U205
*406 U206
*407 U207
*408 U208
*409 U209
*410 U210
*411 U211
*412 U212
*413 U213
*414 U214
*415 U215
*416 U216
*417 U217
*418 U218
*419 U219
*420 U220
*421 U221
*422 U222
*423 U223
*424 U224
*425 U225
*426 U226
*427 U227
*428 U228
*429 U229
*430 U230
*431 U231
*432 U232
*433 U233
*434 U234
*435 U235
*436 U236
*437 U237
*438 U238
*439 U239
*440 U240
*441 U241
*442 U242
*443 U243
*444 U244
*445 U245
*446 U246
*447 U247
*448 U248
*449 U249
*450 U250
*451 U251
*452 U252
*453 U253
*454 U254
*455 U255
*456 U256
*457 U257
*458 U258
*459 U259
*460 U260
*461 U261
*462 U262
*463 U263
*464 U264
*465 U265
*466 U266
*467 U267
*468 U268
*469 U269
*470 U270
*471 U271
*472 U272
*473 U275
*474 U276
*475 U277
*476 U278
*477 U279
*478 U280
*479 U281
*480 U282
*481 U283
*482 U284
*483 U285
*484 U286
*485 U287
*486 U288
*487 U289
*488 U290
*489 U291
*490 U292
*491 U293
*492 U294
*493 U295
*494 U296
*495 U297
*496 U298
*497 U299
*498 U300
*499 U301
*500 U302
*501 U303
*502 U304
*503 U305
*504 U306
*505 U307
*506 U308
*507 U309
*508 U310
*509 U311
*510 U312
*511 U313
*512 U314
*513 U315
*514 U316
*515 U317
*516 U318
*517 U319
*518 U320
*519 U321
*520 U324
*521 U325
*522 U326
*523 U327
*524 U328
*525 U329
*526 U330
*527 U334
*528 U335
*529 U336
*530 U337
*531 U338
*532 U339
*533 U340
*534 U341
*535 U342
*536 U343
*537 U344
*538 U345
*539 U346
*540 U347
*541 U348
*542 U349
*543 U350
*544 U351
*545 U352
*546 U353
*547 U354
*548 U355
*549 U358
*550 U359
*551 U361
*552 U362
*553 U363
*554 U364
*555 U365
*556 U366
*557 U367
*558 U369
*559 U370
*560 U371
*561 U372
*562 U373
*563 U374
*564 U375
*565 U376
*566 U377
*567 U378
*568 U379
*569 U380
*570 U381
*571 U382
*572 U383
*573 U384
*574 U385
*575 U386
*576 U387
*577 U388
*578 U389
*579 U390
*580 U391
*581 U392
*582 U393
*583 U394
*584 U395
*585 U396
*586 U397
*587 U398
*588 U399
*589 U400
*590 U401
*591 U402
*592 U403
*593 U404
*594 U405
*595 U406
*596 U407
*597 U408
*598 ctmTdsLR_1_6
*599 ctmTdsLR_1_7
*600 ctmTdsLR_1_8
*601 ctmTdsLR_1_9
*602 ropt_h_inst_10
*603 ropt_h_inst_11
*604 ropt_h_inst_12
*605 ropt_h_inst_13
*606 ropt_h_inst_14
*607 ropt_h_inst_15
*608 ropt_h_inst_16
*609 ropt_h_inst_17
*610 ropt_h_inst_18
*611 ropt_h_inst_19
*612 ropt_h_inst_20
*613 ropt_h_inst_21
*614 ropt_h_inst_22
*615 ropt_h_inst_23
*616 ropt_h_inst_24
*617 ropt_h_inst_25
*618 ropt_h_inst_26
*619 ropt_h_inst_27
*620 ropt_h_inst_28
*621 ropt_h_inst_29
*622 ropt_h_inst_32
*1 A[31]
*2 A[30]
*3 A[29]
*4 A[28]
*5 A[27]
*6 A[26]
*7 A[25]
*8 A[24]
*9 A[23]
*10 A[22]
*11 A[21]
*12 A[20]
*13 A[19]
*14 A[18]
*15 A[17]
*16 A[16]
*17 A[15]
*18 A[14]
*19 A[13]
*20 A[12]
*21 A[11]
*22 A[10]
*23 A[9]
*24 A[8]
*25 A[7]
*26 A[6]
*27 A[5]
*28 A[4]
*29 A[3]
*30 A[2]
*31 A[1]
*32 A[0]
*33 B[31]
*34 B[30]
*35 B[29]
*36 B[28]
*37 B[27]
*38 B[26]
*39 B[25]
*40 B[24]
*41 B[23]
*42 B[22]
*43 B[21]
*44 B[20]
*45 B[19]
*46 B[18]
*47 B[17]
*48 B[16]
*49 B[15]
*50 B[14]
*51 B[13]
*52 B[12]
*53 B[11]
*54 B[10]
*55 B[9]
*56 B[8]
*57 B[7]
*58 B[6]
*59 B[5]
*60 B[4]
*61 B[3]
*62 B[2]
*63 B[1]
*64 B[0]
*65 Cin
*66 Sum[31]
*67 Sum[30]
*68 Sum[29]
*69 Sum[28]
*70 Sum[27]
*71 Sum[26]
*72 Sum[25]
*73 Sum[24]
*74 Sum[23]
*75 Sum[22]
*76 Sum[21]
*77 Sum[20]
*78 Sum[19]
*79 Sum[18]
*80 Sum[17]
*81 Sum[16]
*82 Sum[15]
*83 Sum[14]
*84 Sum[13]
*85 Sum[12]
*86 Sum[11]
*87 Sum[10]
*88 Sum[9]
*89 Sum[8]
*90 Sum[7]
*91 Sum[6]
*92 Sum[5]
*93 Sum[4]
*94 Sum[3]
*95 Sum[2]
*96 Sum[1]
*97 Sum[0]
*98 Cout
*102 HFSNET_0
*103 HFSNET_1
*104 HFSNET_2
*105 HFSNET_3
*106 HFSNET_4
*107 HFSNET_5
*108 n202
*109 n203
*110 n204
*111 n205
*112 n206
*113 n207
*114 n208
*115 n209
*116 n210
*117 n211
*118 n212
*119 n214
*120 n215
*121 n216
*122 n217
*123 n218
*124 n219
*125 n220
*126 n221
*127 n222
*128 n223
*129 n224
*130 n225
*131 n226
*132 n227
*133 n228
*134 n229
*135 n230
*136 n231
*137 n232
*138 n233
*139 n234
*140 n235
*141 n236
*142 n238
*143 n239
*144 n240
*145 n241
*146 n242
*147 n243
*148 n244
*149 n245
*150 n246
*151 n247
*152 n248
*153 n251
*154 n252
*155 n253
*156 n254
*157 n255
*158 n256
*159 n257
*160 n258
*161 n259
*162 n260
*163 n261
*164 n262
*165 n263
*166 n264
*167 n265
*168 n266
*169 n267
*170 n268
*171 n269
*172 n270
*173 n271
*174 n272
*175 n273
*176 n274
*177 n275
*178 n276
*179 n277
*180 n278
*181 n279
*182 n281
*183 n282
*184 n283
*185 n284
*186 n285
*187 n286
*188 n287
*189 n288
*190 n289
*191 n290
*192 n291
*193 n292
*194 n293
*195 n294
*196 n295
*197 n296
*198 n297
*199 n298
*200 n299
*201 n300
*202 n302
*203 n303
*204 n304
*205 n305
*206 n306
*207 n307
*208 n309
*209 n310
*210 n311
*211 n312
*212 n313
*213 n314
*214 n315
*215 n316
*216 n317
*217 n318
*218 n319
*219 n320
*220 n321
*221 n322
*222 n323
*223 n324
*224 n325
*225 n326
*226 n327
*227 n328
*228 n329
*229 n330
*230 n331
*231 n332
*232 n333
*233 n334
*234 n335
*235 n336
*236 n337
*237 n338
*238 n339
*239 n340
*240 n341
*241 n342
*242 n343
*243 n344
*244 n345
*245 n346
*246 n347
*247 n348
*248 n349
*249 n350
*250 n351
*251 n352
*252 n353
*253 n354
*254 n355
*255 n356
*256 n357
*257 n358
*258 n359
*259 n360
*260 n361
*261 n362
*262 n363
*263 n364
*264 n365
*265 n366
*266 n367
*267 n368
*268 n369
*269 n370
*270 n371
*271 n372
*272 n373
*273 n374
*274 n375
*275 n376
*276 n377
*277 ropt_net_0
*278 ropt_net_1
*279 ropt_net_10
*280 ropt_net_11
*281 ropt_net_12
*282 ropt_net_13
*283 ropt_net_14
*284 ropt_net_15
*285 ropt_net_16
*286 ropt_net_17
*287 ropt_net_18
*288 ropt_net_19
*289 ropt_net_2
*290 ropt_net_20
*291 ropt_net_3
*292 ropt_net_4
*293 ropt_net_5
*294 ropt_net_6
*295 ropt_net_7
*296 ropt_net_8
*297 ropt_net_9

*PORTS

*298 I
*299 I
*300 I
*301 I
*302 I
*303 I
*304 I
*305 I
*306 I
*307 I
*308 I
*309 I
*310 I
*311 I
*312 I
*313 I
*314 I
*315 I
*316 I
*317 I
*318 I
*319 I
*320 I
*321 I
*322 I
*323 I
*324 I
*325 I
*326 I
*327 I
*328 I
*329 I
*330 I
*331 I
*332 I
*333 I
*334 I
*335 I
*336 I
*337 I
*338 I
*339 I
*340 I
*341 I
*342 I
*343 I
*344 I
*345 I
*346 I
*347 I
*348 I
*349 I
*350 I
*351 I
*352 I
*353 I
*354 I
*355 I
*356 I
*357 I
*358 I
*359 I
*360 I
*361 I
*362 I
*363 O
*364 O
*365 O
*366 O
*367 O
*368 O
*369 O
*370 O
*371 O
*372 O
*373 O
*374 O
*375 O
*376 O
*377 O
*378 O
*379 O
*380 O
*381 O
*382 O
*383 O
*384 O
*385 O
*386 O
*387 O
*388 O
*389 O
*390 O
*391 O
*392 O
*393 O
*394 O
*395 O

*D_NET *1 3.14896

*CONN
*P *298 I *C 0.286 38.440
*I *619:A I *C 13.913 17.464

*CAP
1 *298 1.9767
2 *1:2 1.17225

*RES
1 *298 *1:2 64.7431
2 *619:A *1:2 0.194
*END

*D_NET *2 3.49366

*CONN
*P *299 I *C 0.286 29.624
*I *407:A2 I *C 16.248 14.069
*I *507:A2 I *C 15.488 15.640
*I *567:B I *C 15.488 10.776
*I *568:A2 I *C 17.312 14.424

*CAP
1 *299 0.58852
2 *407:A2 0.0297319
3 *567:B 0.113131
4 *568:A2 0.0272615
5 *2:5 0.030995
6 *2:6 0.0279108
7 *2:9 2.12692
8 *2:12 0.310281
9 *2:13 0.238902

*RES
1 *299 *2:9 53.1696
2 *407:A2 *2:10 0.001
3 *407:A2 *2:6 0.001
4 *407:A2 *2:12 1.34643
5 *507:A2 *2:9 1.0
6 *507:A2 *2:8 0.001
7 *567:B *2:7 0.001
8 *567:B *2:12 8.48036
9 *567:B *2:5 0.001
10 *568:A2 *2:11 0.001
11 *568:A2 *2:13 3.74643
12 *2:9 *2:13 3.09286
13 *2:12 *2:13 0.346429
*END

*D_NET *3 2.99213

*CONN
*P *300 I *C 0.286 35.096
*I *410:B0 I *C 11.080 13.968
*I *505:A4 I *C 9.712 15.640
*I *505:A6 I *C 10.320 16.400

*CAP
1 *300 0.826528
2 *410:B0 0.121989
3 *505:A6 0.0449712
4 *3:5 1.83304
5 *3:8 0.16561

*RES
1 *300 *3:5 52.0839
2 *410:B0 *3:8 5.17857
3 *410:B0 *3:7 0.001
4 *505:A4 *3:5 1.0
5 *505:A4 *3:4 0.001
6 *505:A6 *3:8 2.95988
7 *505:A6 *3:6 0.001
8 *3:5 *3:8 1.66071
*END

*D_NET *4 1.62163

*CONN
*P *301 I *C 0.286 26.888
*I *408:A2 I *C 5.760 17.464
*I *409:A2 I *C 6.368 15.184

*CAP
1 *301 0.270031
2 *408:A2 0.00132131
3 *409:A2 0.211693
4 *4:3 1.13859
5 *4:5 0.0

*RES
1 *301 *4:3 26.4946
2 *408:A2 *4:3 1.61786
3 *408:A2 *4:4 0.001
4 *409:A2 *4:3 9.04357
5 *409:A2 *4:5 0.001
*END

*D_NET *5 1.73546

*CONN
*P *302 I *C 0.286 21.112
*I *418:A1 I *C 10.320 22.632
*I *419:A3 I *C 13.816 21.112
*I *500:A1 I *C 13.816 18.984
*I *501:A1 I *C 11.992 22.632

*CAP
1 *302 0.0456488
2 *418:A1 0.138674
3 *500:A1 0.16146
4 *5:9 0.133582
5 *5:10 1.16078
6 *5:11 0.0953182

*RES
1 *302 *5:10 20.7625
2 *418:A1 *5:11 3.24643
3 *418:A1 *5:5 0.001
4 *419:A3 *5:9 1.0
5 *419:A3 *5:8 0.001
6 *500:A1 *5:9 6.29643
7 *500:A1 *5:7 0.001
8 *501:A1 *5:11 1.34643
9 *501:A1 *5:6 0.001
10 *5:9 *5:10 4.10357
11 *5:10 *5:11 3.01786
*END

*D_NET *6 1.27618

*CONN
*P *303 I *C 0.286 17.768
*I *412:A1 I *C 6.976 24.456
*I *414:A1 I *C 7.736 24.152

*CAP
1 *303 0.624738
2 *412:A1 0.0301544
3 *414:A1 0.0834118
4 *6:3 0.537877
5 *6:5 0.0

*RES
1 *303 *6:3 23.4107
2 *412:A1 *6:3 1.9875
3 *412:A1 *6:4 0.001
4 *414:A1 *6:3 2.80179
5 *414:A1 *6:5 0.001
*END

*D_NET *7 1.17355

*CONN
*P *304 I *C 0.286 18.984
*I *417:A4 I *C 7.432 22.328
*I *417:A6 I *C 8.040 23.088
*I *498:B0 I *C 9.256 20.656

*CAP
1 *304 0.153294
2 *417:A4 0.0546998
3 *417:A6 0.0250136
4 *498:B0 0.0169959
5 *7:7 0.794333
6 *7:8 0.129215

*RES
1 *304 *7:7 17.0375
2 *417:A4 *7:8 2.38929
3 *417:A4 *7:4 0.001
4 *417:A6 *7:8 2.66071
5 *417:A6 *7:5 0.001
6 *498:B0 *7:7 3.475
7 *498:B0 *7:6 0.001
8 *7:7 *7:8 2.78929
*END

*D_NET *8 0.825339

*CONN
*P *305 I *C 0.286 19.896
*I *415:A2 I *C 5.912 20.808
*I *497:A2 I *C 6.368 18.528

*CAP
1 *305 0.176769
2 *415:A2 0.00799612
3 *497:A2 0.176746
4 *8:5 0.463829

*RES
1 *305 *8:5 12.6839
2 *415:A2 *8:3 0.001
3 *415:A2 *8:5 1.5
4 *497:A2 *8:4 0.001
5 *497:A2 *8:5 5.99286
*END

*D_NET *9 2.64799

*CONN
*P *306 I *C 0.286 17.160
*I *432:B0 I *C 7.888 32.816
*I *443:A4 I *C 9.408 31.144
*I *443:A6 I *C 10.016 30.384

*CAP
1 *306 1.47637
2 *432:B0 0.0427447
3 *443:A4 0.0114201
4 *443:A6 0.123474
5 *9:7 0.704667
6 *9:8 0.289321

*RES
1 *306 *9:7 39.3268
2 *432:B0 *9:4 0.001
3 *432:B0 *9:7 5.08845
4 *443:A4 *9:5 0.001
5 *443:A4 *9:8 2.16071
6 *443:A6 *9:6 0.001
7 *443:A6 *9:8 6.43488
8 *9:7 *9:8 0.889286
*END

*D_NET *10 2.79567

*CONN
*P *307 I *C 0.286 8.040
*I *430:A1 I *C 8.800 35.704
*I *431:A1 I *C 9.104 34.184

*CAP
1 *307 0.787186
2 *430:A1 0.0393287
3 *431:A1 0.00741834
4 *10:5 1.96174

*RES
1 *307 *10:5 62.3661
2 *430:A1 *10:5 4.31702
3 *430:A1 *10:3 0.001
4 *431:A1 *10:5 1.79917
5 *431:A1 *10:4 0.001
*END

*D_NET *11 3.50633

*CONN
*P *308 I *C 0.286 7.432
*I *436:B0 I *C 15.488 36.160
*I *441:A4 I *C 13.968 34.488
*I *441:A6 I *C 13.360 33.728

*CAP
1 *308 0.861585
2 *436:B0 0.152924
3 *441:A4 0.0149061
4 *441:A6 0.0213212
5 *11:7 2.24058
6 *11:8 0.215014

*RES
1 *308 *11:7 70.7804
2 *436:B0 *11:8 7.62143
3 *436:B0 *11:6 0.001
4 *441:A4 *11:8 2.11786
5 *441:A4 *11:5 0.001
6 *441:A6 *11:7 1.79917
7 *441:A6 *11:4 0.001
8 *11:7 *11:8 1.16071
*END

*D_NET *12 1.06789

*CONN
*P *309 I *C 0.286 33.272
*I *434:A2 I *C 10.776 36.008
*I *435:A2 I *C 11.384 34.944

*CAP
1 *309 0.15519
2 *434:A2 0.0189078
3 *435:A2 0.0136589
4 *12:5 0.880135

*RES
1 *309 *12:5 21.9679
2 *434:A2 *12:5 3.20357
3 *434:A2 *12:3 0.001
4 *435:A2 *12:5 2.38929
5 *435:A2 *12:4 0.001
*END

*D_NET *13 2.567

*CONN
*P *310 I *C 0.286 3.176
*I *422:A4 I *C 7.280 29.016
*I *422:A6 I *C 7.888 29.776
*I *424:B0 I *C 7.128 26.128

*CAP
1 *310 0.5003
2 *422:A4 0.019653
3 *422:A6 0.0600368
4 *424:B0 0.00564265
5 *13:7 1.79004
6 *13:8 0.191327

*RES
1 *310 *13:7 53.4089
2 *422:A4 *13:8 1.79917
3 *422:A4 *13:5 0.001
4 *422:A6 *13:8 3.82143
5 *422:A6 *13:6 0.001
6 *424:B0 *13:7 1.5
7 *424:B0 *13:4 0.001
8 *13:7 *13:8 4.96071
*END

*D_NET *14 0.624793

*CONN
*P *311 I *C 0.286 32.360
*I *420:A1 I *C 5.760 32.360
*I *423:A1 I *C 5.912 30.840

*CAP
1 *311 0.0455366
2 *420:A1 0.0161627
3 *423:A1 0.0932449
4 *14:5 0.469849

*RES
1 *311 *14:5 9.90536
2 *420:A1 *14:5 1.79917
3 *420:A1 *14:3 0.001
4 *423:A1 *14:5 4.36429
5 *423:A1 *14:4 0.001
*END

*D_NET *15 3.48208

*CONN
*P *312 I *C 0.286 8.648
*I *429:A4 I *C 26.128 27.800
*I *429:A6 I *C 25.520 27.040
*I *447:B0 I *C 27.952 27.344

*CAP
1 *312 1.41951
2 *429:A4 0.0436398
3 *447:B0 0.185259
4 *15:7 0.134491
5 *15:8 1.69918

*RES
1 *312 *15:8 77.2946
2 *429:A4 *15:8 4.36429
3 *429:A4 *15:5 0.001
4 *429:A6 *15:7 1.61786
5 *429:A6 *15:4 0.001
6 *447:B0 *15:7 6.54821
7 *447:B0 *15:6 0.001
8 *15:7 *15:8 0.5
*END

*D_NET *16 3.63643

*CONN
*P *313 I *C 0.286 15.944
*I *427:A2 I *C 24.304 29.320
*I *446:A2 I *C 26.280 31.600

*CAP
1 *313 2.0673
2 *427:A2 0.060451
3 *446:A2 0.252641
4 *16:5 1.25604

*RES
1 *313 *16:5 67.5125
2 *427:A2 *16:3 0.001
3 *427:A2 *16:5 3.00714
4 *446:A2 *16:4 0.001
5 *446:A2 *16:5 9.02321
*END

*D_NET *17 3.92287

*CONN
*P *314 I *C 0.286 6.824
*I *452:A4 I *C 18.832 32.360
*I *452:A6 I *C 19.440 33.120
*I *454:B0 I *C 18.528 36.160

*CAP
1 *314 0.974032
2 *452:A4 0.0653624
3 *452:A6 0.0197038
4 *454:B0 0.0437247
5 *17:7 0.173209
6 *17:8 2.64684

*RES
1 *314 *17:8 79.7375
2 *452:A4 *17:5 0.001
3 *452:A4 *17:7 3.32768
4 *452:A6 *17:6 0.001
5 *452:A6 *17:7 1.79917
6 *454:B0 *17:4 0.001
7 *454:B0 *17:8 6.75988
8 *17:7 *17:8 2.77714
*END

*D_NET *18 3.11017

*CONN
*P *315 I *C 0.286 18.376
*I *450:A1 I *C 20.200 35.704
*I *453:A1 I *C 20.916 36.009

*CAP
1 *315 1.52983
2 *450:A1 0.0298422
3 *453:A1 0.0504337
4 *18:4 1.50006

*RES
1 *315 *18:4 68.1429
2 *450:A1 *18:4 1.88929
3 *450:A1 *18:3 0.001
4 *453:A1 *18:4 1.714
*END

*D_NET *19 4.05622

*CONN
*P *316 I *C 0.286 27.800
*I *458:A4 I *C 24.760 15.640
*I *458:A6 I *C 24.152 16.400
*I *460:B0 I *C 25.824 12.752

*CAP
1 *316 0.906935
2 *458:A6 0.000457707
3 *460:B0 0.292812
4 *19:6 0.260716
5 *19:8 2.5953

*RES
1 *316 *19:8 63.7554
2 *458:A4 *19:6 1.0
3 *458:A4 *19:5 0.001
4 *458:A6 *19:8 1.16429
5 *458:A6 *19:4 0.001
6 *460:B0 *19:6 8.46786
7 *460:B0 *19:7 0.001
8 *19:6 *19:8 2.77857
*END

*D_NET *20 2.32432

*CONN
*P *317 I *C 0.286 2.568
*I *456:A1 I *C 25.423 8.952
*I *459:A1 I *C 26.101 9.257

*CAP
1 *317 0.716566
2 *459:A1 0.0301506
3 *20:3 0.0507329
4 *20:5 1.52687
5 *20:6 0.0

*RES
1 *317 *20:5 58.5232
2 *456:A1 *20:3 1.106
3 *459:A1 *20:6 0.001
4 *459:A1 *20:3 0.852
5 *20:4 *20:6 0.001
6 *20:5 *20:6 1.29917
*END

*D_NET *21 2.25634

*CONN
*P *318 I *C 0.286 20.504
*I *465:B0 I *C 22.176 13.968
*I *471:A4 I *C 20.656 17.768
*I *471:A6 I *C 21.264 17.008

*CAP
1 *318 0.27683
2 *465:B0 0.200674
3 *471:A4 0.0631451
4 *471:A6 0.020719
5 *21:4 1.30762
6 *21:8 0.387353

*RES
1 *318 *21:4 42.9214
2 *465:B0 *21:8 7.89286
3 *465:B0 *21:7 0.001
4 *471:A4 *21:4 2.60714
5 *471:A4 *21:5 0.001
6 *471:A6 *21:8 1.79917
7 *471:A6 *21:6 0.001
8 *21:4 *21:8 1.25893
*END

*D_NET *22 2.98207

*CONN
*P *319 I *C 0.286 39.352
*I *463:A1 I *C 27.192 25.672
*I *464:A1 I *C 26.432 24.152

*CAP
1 *319 0.78155
2 *463:A1 0.0581159
3 *464:A1 0.0152858
4 *22:5 2.12711

*RES
1 *319 *22:5 73.5393
2 *463:A1 *22:5 5.17857
3 *463:A1 *22:4 0.001
4 *464:A1 *22:5 1.89107
5 *464:A1 *22:3 0.001
*END

*D_NET *23 3.52383

*CONN
*P *320 I *C 0.286 31.752
*I *469:A4 I *C 18.984 15.640
*I *469:A6 I *C 19.592 16.400
*I *474:B0 I *C 19.744 12.752

*CAP
1 *320 0.816267
2 *469:A4 0.0502519
3 *474:B0 0.202712
4 *23:6 2.27317
5 *23:8 0.181424

*RES
1 *320 *23:6 62.3982
2 *469:A4 *23:4 0.001
3 *469:A4 *23:8 2.38929
4 *469:A6 *23:6 1.0
5 *469:A6 *23:5 0.001
6 *474:B0 *23:7 0.001
7 *474:B0 *23:8 6.75988
8 *23:6 *23:8 1.66071
*END

*D_NET *24 0.594414

*CONN
*P *321 I *C 0.286 13.208
*I *467:A2 I *C 6.368 14.120
*I *473:A2 I *C 7.432 14.880

*CAP
1 *321 0.0814777
2 *467:A2 0.0157486
3 *473:A2 0.0316666
4 *24:5 0.465521

*RES
1 *321 *24:5 12.9661
2 *467:A2 *24:5 1.79917
3 *467:A2 *24:3 0.001
4 *473:A2 *24:5 4.09286
5 *473:A2 *24:4 0.001
*END

*D_NET *25 2.97729

*CONN
*P *322 I *C 0.286 5.304
*I *479:B0 I *C 32.816 17.312
*I *485:A4 I *C 30.688 17.768
*I *485:A6 I *C 30.080 17.008

*CAP
1 *322 1.04158
2 *479:B0 0.171851
3 *485:A4 0.0530906
4 *25:5 1.5432
5 *25:8 0.16756

*RES
1 *322 *25:5 74.6125
2 *479:B0 *25:7 0.001
3 *479:B0 *25:8 5.68929
4 *485:A4 *25:6 0.001
5 *485:A4 *25:8 3.50714
6 *485:A6 *25:5 1.0
7 *485:A6 *25:4 0.001
8 *25:5 *25:8 0.391071
*END

*D_NET *26 2.554

*CONN
*P *323 I *C 0.286 29.016
*I *477:A1 I *C 29.624 25.672
*I *478:A1 I *C 29.168 24.152

*CAP
1 *323 0.615459
2 *477:A1 0.026953
3 *478:A1 0.114509
4 *26:5 1.79708

*RES
1 *323 *26:5 58.2946
2 *477:A1 *26:5 2.1625
3 *477:A1 *26:4 0.001
4 *478:A1 *26:5 4.0456
5 *478:A1 *26:3 0.001
*END

*D_NET *27 2.81516

*CONN
*P *324 I *C 0.286 33.880
*I *483:A4 I *C 28.408 34.488
*I *483:A6 I *C 29.014 33.728
*I *488:B0 I *C 26.736 36.160

*CAP
1 *324 0.40582
2 *483:A4 0.0373278
3 *483:A6 0.184749
4 *488:B0 0.112958
5 *27:6 0.42396
6 *27:7 1.65034

*RES
1 *324 *27:7 48.4482
2 *483:A4 *27:6 3.475
3 *483:A4 *27:5 0.001
4 *483:A6 *27:7 5.43464
5 *488:B0 *27:6 5.0706
6 *488:B0 *27:4 0.001
7 *27:6 *27:7 0.938393
*END

*D_NET *28 2.29522

*CONN
*P *325 I *C 0.286 34.488
*I *481:A2 I *C 30.268 36.008
*I *487:A2 I *C 31.296 35.248

*CAP
1 *325 0.527893
2 *481:A2 0.0537932
3 *487:A2 0.0632269
4 *28:3 1.65031
5 *28:4 0.0

*RES
1 *325 *28:3 55.4839
2 *481:A2 *28:3 2.28964
3 *487:A2 *28:3 2.80179
4 *487:A2 *28:4 0.001
*END

*D_NET *29 3.92151

*CONN
*P *326 I *C 0.286 39.960
*I *491:B0 I *C 33.424 29.472
*I *493:A4 I *C 31.448 31.144
*I *493:A6 I *C 32.056 30.384

*CAP
1 *326 0.940083
2 *491:B0 0.072834
3 *493:A6 0.0201518
4 *29:4 2.62649
5 *29:8 0.261956

*RES
1 *326 *29:4 71.725
2 *491:B0 *29:8 5.17857
3 *491:B0 *29:7 0.001
4 *493:A4 *29:4 1.21786
5 *493:A4 *29:5 0.001
6 *493:A6 *29:8 1.5
7 *493:A6 *29:6 0.001
8 *29:4 *29:8 2.91964
*END

*D_NET *30 4.71901

*CONN
*P *327 I *C 0.286 4.088
*I *403:A2 I *C 30.080 27.496
*I *404:A2 I *C 31.448 28.256

*CAP
1 *327 1.41609
2 *404:A2 0.0651565
3 *30:4 3.23777
4 *30:5 0.0

*RES
1 *327 *30:4 96.3438
2 *403:A2 *30:4 1.0
3 *403:A2 *30:3 0.001
4 *404:A2 *30:4 5.43488
5 *404:A2 *30:5 0.001
*END

*D_NET *31 5.03648

*CONN
*P *328 I *C 0.286 6.216
*I *510:B I *C 33.424 32.816

*CAP
1 *328 1.68394
2 *510:B 0.0157279
3 *31:2 3.33681
4 *31:3 0.0

*RES
1 *328 *31:2 106.739
2 *510:B *31:3 0.001
3 *510:B *31:2 3.07321
*END

*D_NET *32 2.82114

*CONN
*P *329 I *C 0.286 1.960
*I *509:B I *C 32.664 10.624

*CAP
1 *329 1.03711
2 *32:3 1.78403

*RES
1 *329 *32:3 73.7982
2 *509:B *32:3 1.0
3 *509:B *32:2 0.001
*END

*D_NET *33 2.1152

*CONN
*P *330 I *C 36.008 41.482
*I *603:A I *C 35.096 17.464

*CAP
1 *330 0.0286373
2 *603:A 0.120049
3 *33:2 1.96651
4 *33:3 0.0

*RES
1 *330 *33:2 7.225
2 *603:A *33:2 38.4982
3 *603:A *33:3 0.001
*END

*D_NET *34 3.16777

*CONN
*P *331 I *C 11.688 41.482
*I *407:A1 I *C 15.944 14.272
*I *507:A1 I *C 15.336 15.944
*I *567:A I *C 15.957 11.232
*I *568:A1 I *C 17.148 14.120

*CAP
1 *331 1.78765
2 *507:A1 0.0148849
3 *567:A 0.256216
4 *568:A1 0.0293571
5 *34:7 0.18384
6 *34:8 0.252653
7 *34:9 0.643168

*RES
1 *331 *34:9 52.6714
2 *407:A1 *34:7 1.0
3 *407:A1 *34:6 0.001
4 *507:A1 *34:9 1.5
5 *507:A1 *34:5 0.001
6 *567:A *34:8 7.6075
7 *568:A1 *34:7 3.2325
8 *34:7 *34:8 1.38929
9 *34:8 *34:9 2.78929
*END

*D_NET *35 3.0313

*CONN
*P *332 I *C 13.208 41.482
*I *410:A0 I *C 10.624 14.120
*I *505:A1 I *C 9.408 15.792
*I *505:A3 I *C 9.851 16.552

*CAP
1 *332 0.62479
2 *410:A0 0.217973
3 *505:A1 0.01362
4 *505:A3 0.0858808
5 *35:6 0.340571
6 *35:7 1.74847

*RES
1 *332 *35:7 49.4589
2 *410:A0 *35:7 5.72143
3 *410:A0 *35:5 0.001
4 *505:A1 *35:6 1.93393
5 *505:A1 *35:4 0.001
6 *505:A3 *35:6 2.87536
7 *35:6 *35:7 3.01786
*END

*D_NET *36 2.48722

*CONN
*P *333 I *C 2.568 41.482
*I *408:A1 I *C 5.912 17.768
*I *409:A1 I *C 6.216 15.944

*CAP
1 *333 1.64821
2 *408:A1 0.00110099
3 *409:A1 0.185651
4 *36:3 0.652259
5 *36:5 0.0

*RES
1 *333 *36:3 46.8946
2 *408:A1 *36:3 2.43214
3 *408:A1 *36:4 0.001
4 *409:A1 *36:3 8.403
5 *409:A1 *36:5 0.001
*END

*D_NET *37 4.28299

*CONN
*P *334 I *C 34.184 41.482
*I *418:A2 I *C 10.472 22.328
*I *419:A4 I *C 13.512 20.960
*I *500:A2 I *C 13.968 19.288
*I *501:A2 I *C 12.144 21.872

*CAP
1 *334 1.05346
2 *418:A2 0.126928
3 *419:A4 0.0358569
4 *500:A2 0.119524
5 *501:A2 0.0466834
6 *37:9 0.315662
7 *37:10 0.237988
8 *37:11 2.34689

*RES
1 *334 *37:11 71.3875
2 *418:A2 *37:5 0.001
3 *418:A2 *37:9 3.51786
4 *419:A4 *37:7 0.001
5 *419:A4 *37:10 1.84643
6 *500:A2 *37:8 0.001
7 *500:A2 *37:10 4.58845
8 *501:A2 *37:6 0.001
9 *501:A2 *37:9 2.91702
10 *37:9 *37:11 3.06071
11 *37:10 *37:11 2.74643
*END

*D_NET *38 3.71446

*CONN
*P *335 I *C 29.624 41.482
*I *412:A2 I *C 7.128 24.207
*I *414:A2 I *C 7.888 24.912

*CAP
1 *335 0.871052
2 *412:A2 0.0652389
3 *414:A2 0.0192851
4 *38:3 2.75888
5 *38:4 0.0

*RES
1 *335 *38:3 69.7929
2 *412:A2 *38:3 2.58529
3 *414:A2 *38:4 0.001
4 *414:A2 *38:3 1.9875
*END

*D_NET *39 2.38262

*CONN
*P *336 I *C 12.600 41.482
*I *417:A1 I *C 7.128 22.480
*I *417:A3 I *C 7.584 23.240
*I *498:A0 I *C 8.800 20.808

*CAP
1 *336 0.334734
2 *417:A1 0.0100514
3 *417:A3 0.051054
4 *498:A0 0.137252
5 *39:7 0.264397
6 *39:8 1.58513

*RES
1 *336 *39:8 42.0857
2 *417:A1 *39:7 1.34643
3 *417:A1 *39:4 0.001
4 *417:A3 *39:7 3.45988
5 *417:A3 *39:5 0.001
6 *498:A0 *39:8 4.95179
7 *498:A0 *39:6 0.001
8 *39:7 *39:8 1.97679
*END

*D_NET *40 1.96183

*CONN
*P *337 I *C 7.736 41.482
*I *415:A1 I *C 6.064 21.112
*I *497:A1 I *C 6.216 19.288

*CAP
1 *337 0.28465
2 *415:A1 0.0178786
3 *497:A1 0.140051
4 *40:5 1.51925

*RES
1 *337 *40:5 39.5982
2 *415:A1 *40:5 1.79917
3 *415:A1 *40:3 0.001
4 *497:A1 *40:5 4.56071
5 *497:A1 *40:4 0.001
*END

*D_NET *41 1.32779

*CONN
*P *338 I *C 7.128 41.482
*I *432:A0 I *C 7.432 32.664
*I *443:A1 I *C 9.104 30.992
*I *443:A3 I *C 9.560 30.232

*CAP
1 *338 0.0435329
2 *432:A0 0.00796772
3 *443:A1 0.0214501
4 *443:A3 0.0771512
5 *41:7 0.693005
6 *41:8 0.484684

*RES
1 *338 *41:7 16.2357
2 *432:A0 *41:7 1.5
3 *432:A0 *41:4 0.001
4 *443:A1 *41:8 1.61786
5 *443:A1 *41:5 0.001
6 *443:A3 *41:8 3.16071
7 *443:A3 *41:6 0.001
8 *41:7 *41:8 6.9375
*END

*D_NET *42 1.68945

*CONN
*P *339 I *C 25.976 41.482
*I *430:A2 I *C 8.952 36.008
*I *431:A2 I *C 9.256 34.944

*CAP
1 *339 0.338734
2 *430:A2 0.00978115
3 *431:A2 0.0913221
4 *42:5 1.24961

*RES
1 *339 *42:5 40.6839
2 *430:A2 *42:5 1.5
3 *430:A2 *42:3 0.001
4 *431:A2 *42:5 3.79107
5 *431:A2 *42:4 0.001
*END

*D_NET *43 1.05564

*CONN
*P *340 I *C 17.768 41.482
*I *436:A0 I *C 15.032 36.008
*I *441:A1 I *C 14.272 34.336
*I *441:A3 I *C 13.816 33.576

*CAP
1 *340 0.137673
2 *441:A1 0.0161911
3 *441:A3 0.0620426
4 *43:7 0.618593
5 *43:8 0.221141

*RES
1 *340 *43:7 14.8661
2 *436:A0 *43:7 1.0
3 *436:A0 *43:6 0.001
4 *441:A1 *43:8 1.79917
5 *441:A1 *43:5 0.001
6 *441:A3 *43:8 3.25905
7 *441:A3 *43:4 0.001
8 *43:7 *43:8 4.76607
*END

*D_NET *44 1.16998

*CONN
*P *341 I *C 15.944 41.482
*I *434:A1 I *C 10.928 35.704
*I *435:A1 I *C 11.232 34.184

*CAP
1 *341 0.437982
2 *434:A1 0.0130198
3 *435:A1 0.115543
4 *44:5 0.603435

*RES
1 *341 *44:5 19.258
2 *434:A1 *44:3 0.001
3 *434:A1 *44:5 1.345
4 *435:A1 *44:4 0.001
5 *435:A1 *44:5 4.81702
*END

*D_NET *45 2.8128

*CONN
*P *342 I *C 19.896 41.482
*I *422:A1 I *C 6.976 29.168
*I *422:A3 I *C 7.432 29.928
*I *424:A0 I *C 6.672 25.976

*CAP
1 *342 0.536816
2 *422:A1 0.0273098
3 *422:A3 0.0536602
4 *424:A0 0.191813
5 *45:7 1.76033
6 *45:8 0.242871

*RES
1 *342 *45:7 46.3839
2 *422:A1 *45:5 0.001
3 *422:A1 *45:8 1.61786
4 *422:A3 *45:6 0.001
5 *422:A3 *45:8 3.16071
6 *424:A0 *45:4 0.001
7 *424:A0 *45:7 6.75988
8 *45:7 *45:8 1.97679
*END

*D_NET *46 2.5126

*CONN
*P *343 I *C 30.232 41.482
*I *420:A2 I *C 5.912 32.664
*I *423:A2 I *C 6.064 31.600

*CAP
1 *343 1.57339
2 *420:A2 0.0169846
3 *423:A2 0.0872901
4 *46:5 0.834929

*RES
1 *343 *46:5 59.6839
2 *420:A2 *46:5 1.5
3 *420:A2 *46:3 0.001
4 *423:A2 *46:5 3.50274
5 *423:A2 *46:4 0.001
*END

*D_NET *47 1.75031

*CONN
*P *344 I *C 30.840 41.482
*I *429:A1 I *C 26.432 27.648
*I *429:A3 I *C 25.976 26.888
*I *447:A0 I *C 27.496 27.496

*CAP
1 *344 0.209083
2 *429:A1 0.0122682
3 *429:A3 0.101558
4 *447:A0 0.0702585
5 *47:7 0.187217
6 *47:8 1.16993

*RES
1 *344 *47:8 29.2518
2 *429:A1 *47:7 1.79917
3 *429:A1 *47:5 0.001
4 *429:A3 *47:7 3.55
5 *429:A3 *47:4 0.001
6 *447:A0 *47:8 3.50714
7 *447:A0 *47:6 0.001
8 *47:7 *47:8 3.36429
*END

*D_NET *48 2.13726

*CONN
*P *345 I *C 31.752 41.482
*I *427:A1 I *C 24.456 29.016
*I *446:A1 I *C 26.128 30.840

*CAP
1 *345 0.605479
2 *427:A1 0.233601
3 *446:A1 0.0201293
4 *48:5 1.27805

*RES
1 *345 *48:5 30.9768
2 *427:A1 *48:5 6.53571
3 *427:A1 *48:3 0.001
4 *446:A1 *48:5 2.11786
5 *446:A1 *48:4 0.001
*END

*D_NET *49 1.04129

*CONN
*P *346 I *C 16.552 41.482
*I *452:A1 I *C 18.528 32.512
*I *452:A3 I *C 18.984 33.272
*I *454:A0 I *C 18.072 36.008

*CAP
1 *346 0.115766
2 *452:A1 0.0698054
3 *452:A3 0.0204505
4 *454:A0 0.0111737
5 *49:4 0.468817
6 *49:8 0.35528

*RES
1 *346 *49:4 12.25
2 *452:A1 *49:8 3.27857
3 *452:A1 *49:6 0.001
4 *452:A3 *49:8 1.5
5 *452:A3 *49:7 0.001
6 *454:A0 *49:4 1.48929
7 *454:A0 *49:5 0.001
8 *49:4 *49:8 7.2625
*END

*D_NET *50 1.38678

*CONN
*P *347 I *C 29.016 41.482
*I *450:A2 I *C 20.352 36.008
*I *453:A2 I *C 21.112 35.248

*CAP
1 *347 0.314535
2 *450:A2 0.0251236
3 *453:A2 0.0774598
4 *50:5 0.969664

*RES
1 *347 *50:5 25.2125
2 *450:A2 *50:5 1.89107
3 *450:A2 *50:3 0.001
4 *453:A2 *50:5 3.82143
5 *453:A2 *50:4 0.001
*END

*D_NET *51 3.06549

*CONN
*P *348 I *C 28.408 41.482
*I *458:A2 I *C 24.912 16.096
*I *458:A5 I *C 24.304 15.999
*I *460:A0 I *C 25.368 12.600

*CAP
1 *348 1.71371
2 *458:A2 0.0231877
3 *458:A5 0.044253
4 *460:A0 0.362718
5 *51:4 0.0812592
6 *51:7 0.840363

*RES
1 *348 *51:7 51.825
2 *458:A2 *51:4 1.71607
3 *458:A2 *51:5 0.001
4 *458:A5 *51:4 1.43071
5 *460:A0 *51:7 9.20714
6 *460:A0 *51:6 0.001
7 *51:4 *51:7 0.716071
*END

*D_NET *52 3.18706

*CONN
*P *349 I *C 39.048 41.482
*I *456:A2 I *C 25.520 9.256
*I *459:A2 I *C 26.280 8.496

*CAP
1 *349 1.75898
2 *459:A2 0.0653327
3 *52:5 1.36274

*RES
1 *349 *52:5 81.7321
2 *456:A2 *52:3 0.001
3 *456:A2 *52:5 1.29917
4 *459:A2 *52:5 4.05
5 *459:A2 *52:4 0.001
*END

*D_NET *53 2.72166

*CONN
*P *350 I *C 8.952 41.482
*I *465:A0 I *C 21.720 14.120
*I *471:A1 I *C 20.352 17.616
*I *471:A3 I *C 20.808 16.856

*CAP
1 *350 1.51412
2 *465:A0 0.213523
3 *471:A1 0.0334188
4 *471:A3 0.0118412
5 *53:7 0.18709
6 *53:8 0.761664

*RES
1 *350 *53:8 65.1754
2 *465:A0 *53:6 0.001
3 *465:A0 *53:7 7.62143
4 *471:A1 *53:4 0.001
5 *471:A1 *53:8 2.11786
6 *471:A3 *53:5 0.001
7 *471:A3 *53:7 1.5
8 *53:7 *53:8 1.20982
*END

*D_NET *54 2.23974

*CONN
*P *351 I *C 35.400 41.482
*I *463:A2 I *C 27.344 25.976
*I *464:A2 I *C 26.584 24.912

*CAP
1 *351 0.447686
2 *464:A2 0.138046
3 *54:5 1.65401

*RES
1 *351 *54:5 42.8875
2 *463:A2 *54:5 1.0
3 *463:A2 *54:4 0.001
4 *464:A2 *54:5 4.86429
5 *464:A2 *54:3 0.001
*END

*D_NET *55 2.3793

*CONN
*P *352 I *C 15.032 41.482
*I *469:A1 I *C 18.680 15.792
*I *469:A3 I *C 19.136 16.552
*I *474:A0 I *C 19.292 12.600

*CAP
1 *352 1.24988
2 *469:A1 0.0302378
3 *469:A3 0.0132336
4 *474:A0 0.316619
5 *55:6 0.214805
6 *55:7 0.554529

*RES
1 *352 *55:7 52.6911
2 *469:A1 *55:6 1.84643
3 *469:A1 *55:4 0.001
4 *469:A3 *55:7 1.79917
5 *469:A3 *55:5 0.001
6 *474:A0 *55:6 7.38071
7 *55:6 *55:7 1.16071
*END

*D_NET *56 2.45367

*CONN
*P *353 I *C 1.960 41.482
*I *467:A1 I *C 6.520 14.424
*I *473:A1 I *C 7.280 14.120

*CAP
1 *353 1.56193
2 *473:A1 0.0646766
3 *56:4 0.827058
4 *56:5 0.0

*RES
1 *353 *56:4 56.6661
2 *467:A1 *56:4 1.0
3 *467:A1 *56:3 0.001
4 *473:A1 *56:4 3.31071
5 *473:A1 *56:5 0.001
*END

*D_NET *57 1.89842

*CONN
*P *354 I *C 33.576 41.482
*I *479:A0 I *C 32.360 17.464
*I *485:A1 I *C 30.992 17.616
*I *485:A3 I *C 30.536 16.856

*CAP
1 *354 0.342878
2 *479:A0 0.00284157
3 *485:A1 0.0119564
4 *485:A3 0.0816606
5 *57:9 0.0965267
6 *57:10 1.36255

*RES
1 *354 *57:10 46.6964
2 *354 *57:4 0.001
3 *479:A0 *57:10 1.16429
4 *479:A0 *57:8 0.001
5 *485:A1 *57:9 1.345
6 *485:A1 *57:7 0.001
7 *485:A3 *57:9 4.05
8 *485:A3 *57:6 0.001
9 *57:4 *57:5 0.001
10 *57:9 *57:10 2.02411
*END

*D_NET *58 1.79429

*CONN
*P *355 I *C 27.496 41.482
*I *477:A2 I *C 29.472 25.976
*I *478:A2 I *C 29.320 24.912

*CAP
1 *355 0.148229
2 *477:A2 0.00043035
3 *478:A2 0.137366
4 *58:5 1.50827

*RES
1 *355 *58:5 30.1107
2 *477:A2 *58:5 2.16071
3 *477:A2 *58:4 0.001
4 *478:A2 *58:5 4.59286
5 *478:A2 *58:3 0.001
*END

*D_NET *59 1.56982

*CONN
*P *356 I *C 21.112 41.482
*I *483:A1 I *C 28.104 34.336
*I *483:A3 I *C 28.560 33.576
*I *488:A0 I *C 26.280 36.008

*CAP
1 *356 0.278101
2 *483:A1 0.0305765
3 *483:A3 0.0725893
4 *59:5 0.846908
5 *59:8 0.341647

*RES
1 *356 *59:5 19.2089