*SPEF "IEEE 1481-1999"
*DESIGN "hybrid_rcla32"
*DATE "Fri May 22 11:05:18 2026"
*VENDOR "Synopsys Inc."
*PROGRAM "StarRC"
*VERSION "U-2022.12-SP3"
*DESIGN_FLOW "PIN_CAP NONE" "NAME_SCOPE LOCAL"
*DIVIDER /
*DELIMITER :
*BUS_DELIMITER []
*T_UNIT 1.0 NS
*C_UNIT 1.0 FF
*R_UNIT 1.0 OHM
*L_UNIT 1.0 HENRY

// COMMENTS

// CORNER_NAME 
// OPERATING_TEMPERATURE 25
// GLOBAL_TEMPERATURE 25
// TCAD_GRD_FILE /home2/synopsys/libraries/SAED32_EDK/tech/starrc/nominal/saed32nm_1p9m_nominal.nxtgrd
//   TCAD_TIME_STAMP Wed Mar 16 14:34:54 2011
//   TCADGRD_VERSION 72
// galaxy_comments_begin
//   local_nodeid
// galaxy_comments_end

*NAME_MAP
*294 A[31]
*295 A[30]
*296 A[29]
*297 A[28]
*298 A[27]
*299 A[26]
*300 A[25]
*301 A[24]
*302 A[23]
*303 A[22]
*304 A[21]
*305 A[20]
*306 A[19]
*307 A[18]
*308 A[17]
*309 A[16]
*310 A[15]
*311 A[14]
*312 A[13]
*313 A[12]
*314 A[11]
*315 A[10]
*316 A[9]
*317 A[8]
*318 A[7]
*319 A[6]
*320 A[5]
*321 A[4]
*322 A[3]
*323 A[2]
*324 A[1]
*325 A[0]
*326 B[31]
*327 B[30]
*328 B[29]
*329 B[28]
*330 B[27]
*331 B[26]
*332 B[25]
*333 B[24]
*334 B[23]
*335 B[22]
*336 B[21]
*337 B[20]
*338 B[19]
*339 B[18]
*340 B[17]
*341 B[16]
*342 B[15]
*343 B[14]
*344 B[13]
*345 B[12]
*346 B[11]
*347 B[10]
*348 B[9]
*349 B[8]
*350 B[7]
*351 B[6]
*352 B[5]
*353 B[4]
*354 B[3]
*355 B[2]
*356 B[1]
*357 B[0]
*358 Cin
*359 Sum[31]
*360 Sum[30]
*361 Sum[29]
*362 Sum[28]
*363 Sum[27]
*364 Sum[26]
*365 Sum[25]
*366 Sum[24]
*367 Sum[23]
*368 Sum[22]
*369 Sum[21]
*370 Sum[20]
*371 Sum[19]
*372 Sum[18]
*373 Sum[17]
*374 Sum[16]
*375 Sum[15]
*376 Sum[14]
*377 Sum[13]
*378 Sum[12]
*379 Sum[11]
*380 Sum[10]
*381 Sum[9]
*382 Sum[8]
*383 Sum[7]
*384 Sum[6]
*385 Sum[5]
*386 Sum[4]
*387 Sum[3]
*388 Sum[2]
*389 Sum[1]
*390 Sum[0]
*391 Cout
*392 U102
*393 U103
*394 U105
*395 U106
*396 U107
*397 U109
*398 U110
*399 U112
*400 U114
*401 U117
*402 U119
*403 U121
*404 U124
*405 U141
*406 U142
*407 U144
*408 U146
*409 U149
*410 U151
*411 U153
*412 U155
*413 U156
*414 U33
*415 U34
*416 U35
*417 U36
*418 U38
*419 U39
*420 U42
*421 U43
*422 U44
*423 U45
*424 U46
*425 U48
*426 U49
*427 U50
*428 U52
*429 U54
*430 U59
*431 U60
*432 U61
*433 U62
*434 U63
*435 U70
*436 U73
*437 U74
*438 U77
*439 U83
*440 U84
*441 U86
*442 U87
*443 U88
*444 U89
*445 U91
*446 U95
*447 U98
*448 ZBUF_12_inst_257
*449 ZBUF_13_inst_262
*450 ZBUF_2_inst_10
*451 ZBUF_32_inst_263
*452 ZBUF_43_inst_259
*453 ZBUF_5_inst_9
*454 ZBUF_9_inst_264
*455 ctmTdsLR_1_107
*456 ctmTdsLR_1_110
*457 ctmTdsLR_1_113
*458 ctmTdsLR_1_114
*459 ctmTdsLR_1_121
*460 ctmTdsLR_1_168
*461 ctmTdsLR_1_169
*462 ctmTdsLR_1_202
*463 ctmTdsLR_1_203
*464 ctmTdsLR_1_204
*465 ctmTdsLR_1_205
*466 ctmTdsLR_1_206
*467 ctmTdsLR_1_209
*468 ctmTdsLR_1_210
*469 ctmTdsLR_1_212
*470 ctmTdsLR_1_213
*471 ctmTdsLR_1_215
*472 ctmTdsLR_1_217
*473 ctmTdsLR_1_221
*474 ctmTdsLR_1_228
*475 ctmTdsLR_1_230
*476 ctmTdsLR_1_232
*477 ctmTdsLR_1_234
*478 ctmTdsLR_1_236
*479 ctmTdsLR_1_238
*480 ctmTdsLR_1_240
*481 ctmTdsLR_1_242
*482 ctmTdsLR_1_244
*483 ctmTdsLR_1_245
*484 ctmTdsLR_1_246
*485 ctmTdsLR_1_248
*486 ctmTdsLR_1_249
*487 ctmTdsLR_1_252
*488 ctmTdsLR_1_253
*489 ctmTdsLR_1_254
*490 ctmTdsLR_1_256
*491 ctmTdsLR_1_27
*492 ctmTdsLR_1_42
*493 ctmTdsLR_1_58
*494 ctmTdsLR_1_64
*495 ctmTdsLR_1_67
*496 ctmTdsLR_1_68
*497 ctmTdsLR_1_72
*498 ctmTdsLR_1_77
*499 ctmTdsLR_1_85
*500 ctmTdsLR_1_87
*501 ctmTdsLR_1_88
*502 ctmTdsLR_1_91
*503 ctmTdsLR_2_104
*504 ctmTdsLR_2_108
*505 ctmTdsLR_2_111
*506 ctmTdsLR_2_115
*507 ctmTdsLR_2_16
*508 ctmTdsLR_2_20
*509 ctmTdsLR_2_211
*510 ctmTdsLR_2_214
*511 ctmTdsLR_2_216
*512 ctmTdsLR_2_218
*513 ctmTdsLR_2_231
*514 ctmTdsLR_2_233
*515 ctmTdsLR_2_235
*516 ctmTdsLR_2_237
*517 ctmTdsLR_2_239
*518 ctmTdsLR_2_24
*519 ctmTdsLR_2_241
*520 ctmTdsLR_2_243
*521 ctmTdsLR_2_247
*522 ctmTdsLR_2_250
*523 ctmTdsLR_2_255
*524 ctmTdsLR_2_28
*525 ctmTdsLR_2_32
*526 ctmTdsLR_2_36
*527 ctmTdsLR_2_40
*528 ctmTdsLR_2_43
*529 ctmTdsLR_2_59
*530 ctmTdsLR_2_65
*531 ctmTdsLR_2_69
*532 ctmTdsLR_2_73
*533 ctmTdsLR_2_78
*534 ctmTdsLR_2_86
*535 ctmTdsLR_2_89
*536 ctmTdsLR_2_92
*537 ctmTdsLR_3_109
*538 ctmTdsLR_3_112
*539 ctmTdsLR_3_17
*540 ctmTdsLR_3_29
*541 ctmTdsLR_3_37
*542 ctmTdsLR_3_49
*543 ctmTdsLR_3_60
*544 ctmTdsLR_3_70
*545 ctmTdsLR_3_74
*546 ctmTdsLR_3_79
*547 ctmTdsLR_4_26
*548 ctmTdsLR_4_34
*549 ctmTdsLR_4_50
*550 ctmTdsLR_4_61
*551 ctmTdsLR_4_71
*552 ctmTdsLR_4_75
*553 ctmTdsLR_4_80
*554 ctmTdsLR_5_76
*555 ctmTdsLR_5_81
*556 ctmTdsLR_6_52
*557 ctmTdsLR_7_97
*558 intadd_5/U19
*559 intadd_5/U23
*560 intadd_5/U24
*561 intadd_5/U25
*562 intadd_5/U26
*563 intadd_5/U27
*564 intadd_5/U28
*565 intadd_5/U29
*566 intadd_5/U30
*567 intadd_5/U31
*568 intadd_5/U32
*569 ropt_h_inst_267
*570 ropt_h_inst_268
*571 ropt_h_inst_269
*572 ropt_h_inst_270
*573 ropt_h_inst_271
*574 ropt_h_inst_272
*575 ropt_h_inst_273
*576 ropt_h_inst_274
*577 ropt_h_inst_275
*578 ropt_h_inst_276
*579 ropt_h_inst_277
*580 ropt_h_inst_278
*581 ropt_h_inst_279
*582 ropt_h_inst_280
*583 ropt_h_inst_281
*584 ropt_h_inst_282
*585 ropt_h_inst_283
*586 ropt_h_inst_284
*587 ropt_h_inst_285
*588 ropt_h_inst_286
*589 ropt_h_inst_287
*590 ropt_h_inst_288
*591 ropt_h_inst_289
*592 ropt_h_inst_290
*593 ropt_h_inst_291
*594 ropt_h_inst_292
*595 ropt_h_inst_293
*596 ropt_h_inst_294
*597 ropt_h_inst_295
*598 ropt_h_inst_296
*599 ropt_h_inst_297
*600 ropt_h_inst_298
*601 ropt_h_inst_299
*602 ropt_h_inst_300
*603 ropt_h_inst_301
*604 ropt_h_inst_302
*605 ropt_h_inst_303
*606 ropt_h_inst_304
*1 A[31]
*2 A[30]
*3 A[29]
*4 A[28]
*5 A[27]
*6 A[26]
*7 A[25]
*8 A[24]
*9 A[23]
*10 A[22]
*11 A[21]
*12 A[20]
*13 A[19]
*14 A[18]
*15 A[17]
*16 A[16]
*17 A[15]
*18 A[14]
*19 A[13]
*20 A[12]
*21 A[11]
*22 A[10]
*23 A[9]
*24 A[8]
*25 A[7]
*26 A[6]
*27 A[5]
*28 A[4]
*29 A[3]
*30 A[2]
*31 A[1]
*32 A[0]
*33 B[31]
*34 B[30]
*35 B[29]
*36 B[28]
*37 B[27]
*38 B[26]
*39 B[25]
*40 B[24]
*41 B[23]
*42 B[22]
*43 B[21]
*44 B[20]
*45 B[19]
*46 B[18]
*47 B[17]
*48 B[16]
*49 B[15]
*50 B[14]
*51 B[13]
*52 B[12]
*53 B[11]
*54 B[10]
*55 B[9]
*56 B[8]
*57 B[7]
*58 B[6]
*59 B[5]
*60 B[4]
*61 B[3]
*62 B[2]
*63 B[1]
*64 B[0]
*65 Cin
*66 Sum[31]
*67 Sum[30]
*68 Sum[29]
*69 Sum[28]
*70 Sum[27]
*71 Sum[26]
*72 Sum[25]
*73 Sum[24]
*74 Sum[23]
*75 Sum[22]
*76 Sum[21]
*77 Sum[20]
*78 Sum[19]
*79 Sum[18]
*80 Sum[17]
*81 Sum[16]
*82 Sum[15]
*83 Sum[14]
*84 Sum[13]
*85 Sum[12]
*86 Sum[11]
*87 Sum[10]
*88 Sum[9]
*89 Sum[8]
*90 Sum[7]
*91 Sum[6]
*92 Sum[5]
*93 Sum[4]
*94 Sum[3]
*95 Sum[2]
*96 Sum[1]
*97 Sum[0]
*98 Cout
*102 ZBUF_12_3
*103 ZBUF_13_3
*104 ZBUF_2_1
*105 ZBUF_32_3
*106 ZBUF_43_3
*107 ZBUF_5_1
*108 ZBUF_9_3
*109 ZINV_4_2
*110 intadd_5/n10
*111 intadd_5/n12
*112 intadd_5/n14
*113 intadd_5/n16
*114 intadd_5/n18
*115 intadd_5/n19
*116 intadd_5/n2
*117 intadd_5/n22
*118 intadd_5/n23
*119 intadd_5/n24
*120 intadd_5/n25
*121 intadd_5/n26
*122 intadd_5/n27
*123 intadd_5/n28
*124 intadd_5/n29
*125 intadd_5/n3
*126 intadd_5/n30
*127 intadd_5/n31
*128 intadd_5/n32
*129 intadd_5/n4
*130 intadd_5/n6
*131 n100
*132 n101
*133 n102
*134 n104
*135 n105
*136 n106
*137 n107
*138 n108
*139 n109
*140 n111
*141 n113
*142 n114
*143 n115
*144 n116
*145 n117
*146 n118
*147 n119
*148 n120
*149 n121
*150 n123
*151 n126
*152 n127
*153 n129
*154 n130
*155 n131
*156 n133
*157 n137
*158 n138
*159 n141
*160 n143
*161 n145
*162 n147
*163 n149
*164 n151
*165 n153
*166 n156
*167 n157
*168 n62
*169 n63
*170 n64
*171 n65
*172 n66
*173 n69
*174 n70
*175 n71
*176 n72
*177 n73
*178 n78
*179 n79
*180 n80
*181 n81
*182 n83
*183 n84
*184 n85
*185 n86
*186 n87
*187 n89
*188 n90
*189 n91
*190 n93
*191 n94
*192 n95
*193 n97
*194 popt_net_0
*195 popt_net_1
*196 popt_net_11
*197 popt_net_12
*198 popt_net_14
*199 popt_net_15
*200 popt_net_16
*201 popt_net_18
*202 popt_net_19
*203 popt_net_2
*204 popt_net_20
*205 popt_net_21
*206 popt_net_28
*207 popt_net_29
*208 popt_net_30
*209 popt_net_32
*210 popt_net_33
*211 popt_net_34
*212 popt_net_35
*213 popt_net_36
*214 popt_net_37
*215 popt_net_38
*216 popt_net_39
*217 popt_net_4
*218 popt_net_40
*219 popt_net_41
*220 popt_net_42
*221 popt_net_43
*222 popt_net_44
*223 popt_net_45
*224 popt_net_46
*225 popt_net_47
*226 popt_net_48
*227 popt_net_52
*228 popt_net_53
*229 popt_net_54
*230 popt_net_56
*231 popt_net_57
*232 popt_net_58
*233 popt_net_59
*234 popt_net_6
*235 popt_net_60
*236 popt_net_61
*237 popt_net_63
*238 popt_net_7
*239 popt_net_8
*240 popt_net_9
*241 ropt_net_100
*242 ropt_net_101
*243 ropt_net_102
*244 ropt_net_103
*245 ropt_net_104
*246 ropt_net_105
*247 ropt_net_106
*248 ropt_net_107
*249 ropt_net_108
*250 ropt_net_109
*251 ropt_net_110
*252 ropt_net_111
*253 ropt_net_112
*254 ropt_net_113
*255 ropt_net_114
*256 ropt_net_115
*257 ropt_net_116
*258 ropt_net_117
*259 ropt_net_118
*260 ropt_net_119
*261 ropt_net_120
*262 ropt_net_121
*263 ropt_net_122
*264 ropt_net_123
*265 ropt_net_124
*266 ropt_net_125
*267 ropt_net_126
*268 ropt_net_127
*269 ropt_net_90
*270 ropt_net_91
*271 ropt_net_92
*272 ropt_net_93
*273 ropt_net_94
*274 ropt_net_95
*275 ropt_net_96
*276 ropt_net_97
*277 ropt_net_98
*278 ropt_net_99
*279 tmp_net71
*280 tmp_net72
*281 tmp_net73
*282 tmp_net74
*283 tmp_net79
*284 tmp_net80
*285 tmp_net81
*286 tmp_net82
*287 tmp_net83
*288 tmp_net84
*289 tmp_net85
*290 tmp_net86
*291 tmp_net87
*292 tmp_net88
*293 tmp_net89

*PORTS

*294 I
*295 I
*296 I
*297 I
*298 I
*299 I
*300 I
*301 I
*302 I
*303 I
*304 I
*305 I
*306 I
*307 I
*308 I
*309 I
*310 I
*311 I
*312 I
*313 I
*314 I
*315 I
*316 I
*317 I
*318 I
*319 I
*320 I
*321 I
*322 I
*323 I
*324 I
*325 I
*326 I
*327 I
*328 I
*329 I
*330 I
*331 I
*332 I
*333 I
*334 I
*335 I
*336 I
*337 I
*338 I
*339 I
*340 I
*341 I
*342 I
*343 I
*344 I
*345 I
*346 I
*347 I
*348 I
*349 I
*350 I
*351 I
*352 I
*353 I
*354 I
*355 I
*356 I
*357 I
*358 I
*359 O
*360 O
*361 O
*362 O
*363 O
*364 O
*365 O
*366 O
*367 O
*368 O
*369 O
*370 O
*371 O
*372 O
*373 O
*374 O
*375 O
*376 O
*377 O
*378 O
*379 O
*380 O
*381 O
*382 O
*383 O
*384 O
*385 O
*386 O
*387 O
*388 O
*389 O
*390 O
*391 O

*D_NET *1 4.50895

*CONN
*P *294 I *C 0.286 33.880
*I *531:A2 I *C 28.104 10.725
*I *544:A2 I *C 25.976 10.776
*I *551:A2 I *C 31.144 12.603

*CAP
1 *294 1.07619
2 *531:A2 0.0106284
3 *551:A2 0.443789
4 *1:4 0.0279108
5 *1:5 2.63194
6 *1:7 0.318497
7 *1:8 0.0

*RES
1 *294 *1:5 87.4571
2 *531:A2 *1:7 4.10357
3 *531:A2 *1:8 0.001
4 *531:A2 *1:4 0.001
5 *544:A2 *1:7 1.0
6 *544:A2 *1:6 0.001
7 *551:A2 *1:5 12.325
8 *1:5 *1:7 1.03214
*END

*D_NET *2 3.55572

*CONN
*P *295 I *C 0.286 26.280
*I *404:A2 I *C 20.048 9.307
*I *538:A2 I *C 21.872 15.640
*I *586:A I *C 20.449 10.776

*CAP
1 *295 0.64287
2 *404:A2 0.195972
3 *538:A2 0.0171505
4 *586:A 0.0782738
5 *2:4 0.0331462
6 *2:7 0.656838
7 *2:8 1.93147

*RES
1 *295 *2:8 57.5125
2 *404:A2 *2:7 5.49286
3 *404:A2 *2:5 0.001
4 *404:A2 *2:4 0.086646
5 *538:A2 *2:8 1.88929
6 *538:A2 *2:6 0.001
7 *586:A *2:7 3.71395
8 *2:7 *2:8 8.98929
*END

*D_NET *3 3.83302

*CONN
*P *296 I *C 0.286 27.496
*I *483:A3 I *C 19.440 16.552
*I *518:A1 I *C 15.488 12.448
*I *592:A I *C 19.081 14.120

*CAP
1 *296 1.48991
2 *483:A3 0.15122
3 *518:A1 0.274572
4 *592:A 0.0936949
5 *3:6 0.464462
6 *3:7 1.35916

*RES
1 *296 *3:7 51.5411
2 *483:A3 *3:5 0.001
3 *483:A3 *3:7 4.10536
4 *518:A1 *3:4 0.001
5 *518:A1 *3:6 7.62143
6 *592:A *3:6 4.167
7 *3:6 *3:7 4.91786
*END

*D_NET *4 3.00127

*CONN
*P *297 I *C 0.286 23.848
*I *401:A2 I *C 14.424 15.640
*I *434:A2 I *C 12.448 9.256
*I *464:A2 I *C 13.056 14.069

*CAP
1 *297 1.04856
2 *401:A2 0.138034
3 *434:A2 0.351189
4 *464:A2 0.0196804
5 *4:4 0.0279108
6 *4:8 0.246502
7 *4:9 1.16939

*RES
1 *297 *4:9 36.8839
2 *401:A2 *4:7 0.001
3 *401:A2 *4:9 4.875
4 *434:A2 *4:5 0.001
5 *434:A2 *4:8 10.2885
6 *464:A2 *4:6 0.001
7 *464:A2 *4:4 0.001
8 *464:A2 *4:8 2.16071
9 *4:8 *4:9 2.74643
*END

*D_NET *5 1.60725

*CONN
*P *298 I *C 0.286 18.680
*I *403:A1 I *C 13.208 15.792
*I *405:A2 I *C 14.424 17.413
*I *589:A I *C 15.336 17.464

*CAP
1 *298 0.124914
2 *403:A1 0.175733
3 *589:A 0.0122725
4 *5:4 0.0246705
5 *5:7 0.130146
6 *5:9 1.13951

*RES
1 *298 *5:9 25.4518
2 *403:A1 *5:5 0.001
3 *403:A1 *5:9 4.28929
4 *405:A2 *5:7 0.5
5 *405:A2 *5:6 0.001
6 *405:A2 *5:4 0.001
7 *589:A *5:8 0.001
8 *589:A *5:7 2.43214
9 *5:7 *5:9 2.475
*END

*D_NET *6 1.90092

*CONN
*P *299 I *C 0.286 15.640
*I *433:A2 I *C 5.912 30.840
*I *438:A2 I *C 5.340 29.320
*I *466:A2 I *C 6.854 29.472

*CAP
1 *299 1.29272
2 *433:A2 0.0958622
3 *438:A2 0.0291181
4 *466:A2 0.0765402
5 *6:4 0.0302418
6 *6:5 0.097516
7 *6:6 0.278915
8 *6:8 0.0

*RES
1 *299 *6:6 34.1696
2 *433:A2 *6:5 3.38929
3 *433:A2 *6:7 0.001
4 *438:A2 *6:6 1.2575
5 *466:A2 *6:5 2.08393
6 *466:A2 *6:8 0.001
7 *466:A2 *6:4 0.0821839
8 *6:5 *6:6 0.9875
*END

*D_NET *7 1.76138

*CONN
*P *300 I *C 0.286 16.856
*I *406:A2 I *C 6.824 22.683
*I *437:A1 I *C 6.368 24.456
*I *587:A I *C 9.353 19.303

*CAP
1 *300 0.165728
2 *406:A2 0.0237075
3 *437:A1 0.0560485
4 *587:A 0.154924
5 *7:4 0.0294966
6 *7:7 1.12225
7 *7:8 0.209219

*RES
1 *300 *7:7 14.8661
2 *406:A2 *7:8 1.11964
3 *406:A2 *7:6 0.001
4 *406:A2 *7:4 0.086646
5 *437:A1 *7:8 5.45
6 *437:A1 *7:5 0.001
7 *587:A *7:7 7.25043
8 *7:7 *7:8 6.86071
*END

*D_NET *8 1.35838

*CONN
*P *301 I *C 0.286 17.464
*I *398:A2 I *C 6.672 15.640
*I *432:A2 I *C 5.760 10.822
*I *463:A2 I *C 5.760 12.651

*CAP
1 *301 0.148425
2 *398:A2 0.0355908
3 *432:A2 0.152514
4 *463:A2 0.0230274
5 *8:4 0.0299058
6 *8:7 0.368523
7 *8:8 0.600395

*RES
1 *301 *8:8 13.0554
2 *398:A2 *8:8 3.20357
3 *398:A2 *8:6 0.001
4 *432:A2 *8:7 4.2895
5 *463:A2 *8:7 1.39107
6 *463:A2 *8:5 0.001
7 *463:A2 *8:4 0.086646
8 *8:7 *8:8 5.50357
*END

*D_NET *9 1.39968

*CONN
*P *302 I *C 0.286 15.032
*I *400:A1 I *C 5.608 17.616
*I *407:A2 I *C 5.760 20.757
*I *573:A I *C 7.529 20.808

*CAP
1 *302 0.470039
2 *407:A2 0.0314465
3 *573:A 0.0530785
4 *9:4 0.0279108
5 *9:6 0.496389
6 *9:8 0.320817

*RES
1 *302 *9:6 14.6268
2 *400:A1 *9:6 1.0
3 *400:A1 *9:5 0.001
4 *407:A2 *9:8 1.43393
5 *407:A2 *9:7 0.001
6 *407:A2 *9:4 0.001
7 *573:A *9:8 3.363
8 *9:6 *9:8 7.12143
*END

*D_NET *10 2.96729

*CONN
*P *303 I *C 0.286 8.952
*I *507:A1 I *C 7.225 24.304
*I *516:A1 I *C 13.208 24.912
*I *539:A1 I *C 7.736 25.824

*CAP
1 *303 1.26129
2 *507:A1 0.076885
3 *516:A1 0.766572
4 *539:A1 0.0681225
5 *10:4 0.595654
6 *10:5 0.198769
7 *10:7 0.0

*RES
1 *303 *10:4 41.5964
2 *507:A1 *10:5 1.996
3 *516:A1 *10:7 0.001
4 *516:A1 *10:5 11.9768
5 *539:A1 *10:6 0.001
6 *539:A1 *10:4 3.34464
7 *10:4 *10:5 2.61607
*END

*D_NET *11 3.08945

*CONN
*P *304 I *C 0.286 8.344
*I *408:A2 I *C 13.816 22.683
*I *449:A I *C 12.296 22.632
*I *478:A2 I *C 16.945 22.328
*I *490:A6 I *C 13.512 18.528

*CAP
1 *304 0.745736
2 *408:A2 0.017758
3 *449:A 0.00351572
4 *478:A2 0.0306751
5 *490:A6 0.00438689
6 *11:5 0.0211564
7 *11:6 0.00392603
8 *11:7 0.0331462
9 *11:8 0.148814
10 *11:9 1.57003
11 *11:13 0.510307
12 *11:14 0.0

*RES
1 *304 *11:9 42.6621
2 *408:A2 *11:12 0.001
3 *408:A2 *11:7 0.086646
4 *408:A2 *11:8 0.944643
5 *449:A *11:10 0.001
6 *449:A *11:8 3.07321
7 *478:A2 *11:13 4.60357
8 *490:A6 *11:11 0.001
9 *490:A6 *11:6 0.001
10 *490:A6 *11:9 1.21429
11 *11:5 *11:6 0.001
12 *11:6 *11:14 0.001
13 *11:8 *11:13 2.61607
14 *11:9 *11:13 9.3875
*END

*D_NET *12 3.13623

*CONN
*P *305 I *C 0.286 30.840
*I *487:A5 I *C 22.328 30.840
*I *508:A1 I *C 9.408 30.992
*I *581:A I *C 20.352 27.496

*CAP
1 *305 0.720217
2 *487:A5 0.241032
3 *581:A 0.266611
4 *12:5 0.250616
5 *12:8 1.65776

*RES
1 *305 *12:5 17.2938
2 *487:A5 *12:7 0.001
3 *487:A5 *12:8 6.80714
4 *508:A1 *12:5 1.0
5 *508:A1 *12:4 0.001
6 *581:A *12:6 0.001
7 *581:A *12:8 7.62143
8 *12:5 *12:8 19.6196
*END

*D_NET *13 2.30366

*CONN
*P *306 I *C 0.286 6.824
*I *409:A2 I *C 16.096 19.339
*I *452:A I *C 14.521 19.303

*CAP
1 *306 0.981997
2 *409:A2 0.175498
3 *452:A 0.020673
4 *13:3 0.0326014
5 *13:4 1.09289
6 *13:5 0.0

*RES
1 *306 *13:4 48.0125
2 *409:A2 *13:5 0.001
3 *409:A2 *13:3 0.086646
4 *409:A2 *13:4 3.33839
5 *452:A *13:4 1.134
*END

*D_NET *14 2.03273

*CONN
*P *307 I *C 0.286 28.712
*I *419:A I *C 23.240 27.496
*I *431:A2 I *C 24.152 30.840

*CAP
1 *307 0.201902
2 *419:A 0.0929777
3 *431:A2 0.0802319
4 *14:5 1.65762

*RES
1 *307 *14:5 40.8482
2 *419:A *14:3 0.001
3 *419:A *14:5 3.82143
4 *431:A2 *14:4 0.001
5 *431:A2 *14:5 7.07857
*END

*D_NET *15 4.76611

*CONN
*P *308 I *C 0.286 7.736
*I *393:A2 I *C 25.672 29.320
*I *410:A2 I *C 26.584 30.789
*I *448:A I *C 27.441 30.840

*CAP
1 *308 1.0125
2 *393:A2 0.0249874
3 *410:A2 0.0113183
4 *448:A 0.123075
5 *15:4 0.0246705
6 *15:5 0.236958
7 *15:8 3.33259

*RES
1 *308 *15:8 83.6018
2 *393:A2 *15:6 0.001
3 *393:A2 *15:8 2.38929
4 *410:A2 *15:7 0.001
5 *410:A2 *15:5 0.7625
6 *410:A2 *15:4 0.001
7 *448:A *15:5 2.95093
8 *15:5 *15:8 5.09107
*END

*D_NET *16 3.16533

*CONN
*P *309 I *C 0.286 14.120
*I *415:A I *C 29.168 17.464
*I *430:A2 I *C 29.928 25.976

*CAP
1 *309 0.645185
2 *415:A 0.036071
3 *430:A2 0.0434049
4 *16:5 2.44067

*RES
1 *309 *16:5 59.3804
2 *415:A *16:3 0.001
3 *415:A *16:5 2.97679
4 *430:A2 *16:4 0.001
5 *430:A2 *16:5 16.0804
*END

*D_NET *17 3.65721

*CONN
*P *310 I *C 0.286 6.216
*I *411:A2 I *C 23.544 15.995
*I *444:A2 I *C 23.696 14.120
*I *469:A2 I *C 29.320 24.152

*CAP
1 *310 0.692306
2 *411:A2 0.0183574
3 *444:A2 0.00948122
4 *469:A2 0.772554
5 *17:4 0.0331462
6 *17:8 1.55821
7 *17:9 0.573152

*RES
1 *310 *17:8 55.8518
2 *411:A2 *17:9 1.11964
3 *411:A2 *17:5 0.001
4 *411:A2 *17:4 0.086646
5 *444:A2 *17:8 1.79917
6 *444:A2 *17:6 0.001
7 *469:A2 *17:9 26.3946
8 *469:A2 *17:7 0.001
9 *17:8 *17:9 2.78929
*END

*D_NET *18 4.11

*CONN
*P *311 I *C 0.136 16.248
*I *523:A4 I *C 26.736 25.672
*I *541:A1 I *C 25.313 20.960
*I *601:A I *C 26.529 20.808

*CAP
1 *311 0.698231
2 *523:A4 0.107643
3 *541:A1 0.0789065
4 *601:A 0.0908483
5 *18:4 0.676178
6 *18:6 2.43769
7 *18:8 0.0205078

*RES
1 *311 *18:6 52.45
2 *311 *18:5 0.001
3 *523:A4 *18:4 11.9214
4 *523:A4 *18:7 0.001
5 *541:A1 *18:6 2.604
6 *601:A *18:4 2.341
7 *18:4 *18:6 2.02411
8 *18:5 *18:8 0.001
*END

*D_NET *19 3.18654

*CONN
*P *312 I *C 0.286 24.456
*I *436:A2 I *C 24.456 12.651
*I *440:A2 I *C 24.760 15.640
*I *509:A2 I *C 26.888 14.120

*CAP
1 *312 0.651893
2 *436:A2 0.224731
3 *509:A2 0.175551
4 *19:4 0.0337403
5 *19:7 0.308138
6 *19:9 1.79248

*RES
1 *312 *19:9 59.1089
2 *436:A2 *19:9 6.23214
3 *436:A2 *19:5 0.001
4 *436:A2 *19:4 0.086646
5 *440:A2 *19:7 1.0
6 *440:A2 *19:6 0.001
7 *509:A2 *19:7 7.925
8 *509:A2 *19:8 0.001
9 *19:7 *19:9 0.846429
*END

*D_NET *20 1.82851

*CONN
*P *313 I *C 0.286 2.568
*I *417:A I *C 24.152 5.912
*I *602:A I *C 24.000 7.432

*CAP
1 *313 0.386723
2 *417:A 0.0100806
3 *602:A 0.0405335
4 *20:5 1.39117

*RES
1 *313 *20:5 48.2518
2 *417:A *20:5 1.84643
3 *417:A *20:4 0.001
4 *602:A *20:5 4.1375
5 *602:A *20:3 0.001
*END

*D_NET *21 2.81723

*CONN
*P *314 I *C 0.286 18.072
*I *396:A2 I *C 22.425 7.432
*I *412:A2 I *C 21.872 9.307
*I *604:A I *C 24.000 9.256

*CAP
1 *314 0.635262
2 *396:A2 0.124859
3 *412:A2 0.00528308
4 *604:A 0.149718
5 *21:4 0.0331462
6 *21:5 1.86896
7 *21:7 0.0

*RES
1 *314 *21:5 55.4393
2 *396:A2 *21:5 4.70671
3 *412:A2 *21:5 0.944643
4 *412:A2 *21:6 0.001
5 *412:A2 *21:4 0.086646
6 *604:A *21:5 5.24464
7 *604:A *21:7 0.001
*END

*D_NET *22 4.62761

*CONN
*P *315 I *C 0.286 34.488
*I *489:A2 I *C 28.256 22.328
*I *506:A2 I *C 29.776 18.528
*I *603:A I *C 23.793 19.303

*CAP
1 *315 0.844811
2 *489:A2 0.134961
3 *506:A2 0.090443
4 *603:A 0.0812113
5 *22:4 3.06518
6 *22:7 0.411003

*RES
1 *315 *22:4 68.6411
2 *489:A2 *22:5 0.001
3 *489:A2 *22:7 7.12321
4 *506:A2 *22:6 0.001
5 *506:A2 *22:7 4.68036
6 *603:A *22:4 1.996
7 *22:4 *22:7 9.84821
*END

*D_NET *23 2.2756

*CONN
*P *316 I *C 0.286 28.104
*I *599:A I *C 12.849 20.808

*CAP
1 *316 1.33813
2 *23:2 0.937478

*RES
1 *316 *23:2 37.8391
2 *599:A *23:2 0.194
*END

*D_NET *24 1.05736

*CONN
*P *317 I *C 0.286 11.688
*I *596:A I *C 14.272 12.600

*CAP
1 *317 0.129921
2 *24:3 0.927435

*RES
1 *317 *24:3 27.1125
2 *596:A *24:3 1.0
3 *596:A *24:2 0.001
*END

*D_NET *25 2.15349

*CONN
*P *318 I *C 0.286 4.696
*I *598:A I *C 20.449 15.959

*CAP
1 *318 0.790097
2 *25:2 1.3634

*RES
1 *318 *25:2 58.5074
2 *598:A *25:2 0.194
*END

*D_NET *26 1.25654

*CONN
*P *319 I *C 0.286 25.672
*I *597:A I *C 14.880 25.976

*CAP
1 *319 0.23892
2 *26:3 1.01762

*RES
1 *319 *26:3 29.9321
2 *597:A *26:2 0.001
3 *597:A *26:3 1.29917
*END

*D_NET *27 2.28684

*CONN
*P *320 I *C 0.286 29.624
*I *564:A I *C 18.224 31.296

*CAP
1 *320 1.97859
2 *27:3 0.308254

*RES
1 *320 *27:3 35.5268
2 *564:A *27:3 1.0
3 *564:A *27:2 0.001
*END

*D_NET *28 2.15852

*CONN
*P *321 I *C 0.286 30.232
*I *565:A I *C 15.348 31.296

*CAP
1 *321 1.87159
2 *565:A 0.032057
3 *28:2 0.25487

*RES
1 *321 *28:2 29.5554
2 *565:A *28:2 1.2575
*END

*D_NET *29 1.25856

*CONN
*P *322 I *C 0.286 35.096
*I *606:A I *C 12.393 29.335

*CAP
1 *322 0.322443
2 *29:2 0.936121

*RES
1 *322 *29:2 32.9208
2 *606:A *29:2 0.498
*END

*D_NET *30 2.32597

*CONN
*P *323 I *C 0.286 3.480
*I *567:A I *C 10.181 28.864

*CAP
1 *323 0.745327
2 *30:2 1.58064

*RES
1 *323 *30:2 65.0438
2 *567:A *30:2 0.204568
*END

*D_NET *31 1.10119

*CONN
*P *324 I *C 0.286 5.608
*I *590:A I *C 5.304 15.944

*CAP
1 *324 0.739425
2 *31:3 0.361764

*RES
1 *324 *31:3 27.9268
2 *590:A *31:3 1.0
3 *590:A *31:2 0.001
*END

*D_NET *32 1.79754

*CONN
*P *325 I *C 0.286 1.960
*I *413:A3 I *C 11.384 5.760
*I *495:A2 I *C 9.560 14.120
*I *500:A2 I *C 10.168 12.600

*CAP
1 *325 0.261601
2 *413:A3 0.0206971
3 *495:A2 0.06968
4 *500:A2 0.0161105
5 *32:7 0.200401
6 *32:8 1.22905

*RES
1 *325 *32:8 24.6375
2 *413:A3 *32:6 0.001
3 *413:A3 *32:8 3.475
4 *495:A2 *32:4 0.001
5 *495:A2 *32:7 4.45357
6 *500:A2 *32:5 0.001
7 *500:A2 *32:7 1.84643
8 *32:7 *32:8 12.6054
*END

*D_NET *33 2.18019

*CONN
*P *326 I *C 33.880 36.466
*I *570:A I *C 30.080 14.120

*CAP
1 *326 0.0274413
2 *570:A 0.411887
3 *33:2 1.74086
4 *33:3 0.0

*RES
1 *326 *33:2 2.88214
2 *570:A *33:3 0.001
3 *570:A *33:2 45.6196
*END

*D_NET *34 3.64756

*CONN
*P *327 I *C 10.472 36.466
*I *404:A1 I *C 19.689 9.104
*I *485:A2 I *C 22.328 10.776
*I *538:A1 I *C 21.720 15.944

*CAP
1 *327 0.829665
2 *404:A1 0.225623
3 *485:A2 0.00241313
4 *538:A1 0.0012194
5 *34:6 0.674627
6 *34:7 1.91401

*RES
1 *327 *34:7 55.9161
2 *404:A1 *34:6 7.55386
3 *485:A2 *34:5 0.001
4 *485:A2 *34:6 3.51786
5 *538:A1 *34:4 0.001
6 *538:A1 *34:7 2.43214
7 *34:6 *34:7 10.0321
*END

*D_NET *35 3.19097

*CONN
*P *328 I *C 11.992 36.466
*I *483:A4 I *C 19.288 16.096
*I *518:A2 I *C 15.792 12.651
*I *547:A2 I *C 17.312 12.600

*CAP
1 *328 1.80281
2 *483:A4 0.176659
3 *518:A2 0.00077907
4 *35:4 0.0331462
5 *35:5 0.510086
6 *35:9 0.667491

*RES
1 *328 *35:9 45.5375
2 *483:A4 *35:9 4.875
3 *483:A4 *35:8 0.001
4 *518:A2 *35:5 2.79554
5 *518:A2 *35:6 0.001
6 *518:A2 *35:4 0.086646
7 *547:A2 *35:7 0.001
8 *547:A2 *35:5 1.345
9 *35:5 *35:9 7.31786
*END

*D_NET *36 3.8248

*CONN
*P *329 I *C 2.568 36.466
*I *401:A1 I *C 14.272 15.944
*I *434:A1 I *C 12.752 9.408
*I *464:A1 I *C 12.697 14.272

*CAP
1 *329 1.94386
2 *401:A1 0.0680291
3 *434:A1 0.530523
4 *464:A1 0.111118
5 *36:6 0.873526
6 *36:7 0.297741

*RES
1 *329 *36:6 55.8518
2 *401:A1 *36:7 5.17857
3 *401:A1 *36:5 0.001
4 *434:A1 *36:7 12.1885
5 *434:A1 *36:4 0.001
6 *464:A1 *36:6 3.00714
7 *36:6 *36:7 0.5
*END

*D_NET *37 2.91565

*CONN
*P *330 I *C 31.144 36.466
*I *403:A2 I *C 13.001 15.944
*I *405:A1 I *C 14.728 17.616
*I *459:A2 I *C 17.160 17.464

*CAP
1 *330 0.581564
2 *403:A2 0.215989
3 *37:5 0.298194
4 *37:7 1.81991

*RES
1 *330 *37:7 60.7161
2 *403:A2 *37:5 9.83507
3 *405:A1 *37:5 1.0
4 *405:A1 *37:4 0.001
5 *459:A2 *37:7 1.0
6 *459:A2 *37:6 0.001
7 *37:5 *37:7 4.4625
*END

*D_NET *38 2.87792

*CONN
*P *331 I *C 26.888 36.466
*I *433:A1 I *C 6.216 30.688
*I *438:A1 I *C 5.456 29.016
*I *466:A1 I *C 7.128 29.396

*CAP
1 *331 0.398891
2 *433:A1 0.00952086
3 *438:A1 0.0248756
4 *38:4 0.0261869
5 *38:8 0.271651
6 *38:9 2.14679

*RES
1 *331 *38:9 46.6125
2 *433:A1 *38:6 0.001
3 *433:A1 *38:9 2.50869
4 *438:A1 *38:5 0.001
5 *438:A1 *38:8 4.37679
6 *466:A1 *38:8 0.5
7 *466:A1 *38:7 0.001
8 *466:A1 *38:4 0.0688953
9 *38:8 *38:9 2.11429
*END

*D_NET *39 2.38064

*CONN
*P *332 I *C 11.384 36.466
*I *406:A1 I *C 7.183 22.480
*I *437:A2 I *C 6.484 24.152
*I *514:A2 I *C 9.408 17.464

*CAP
1 *332 0.280555
2 *406:A1 0.0718705
3 *437:A2 0.137019
4 *514:A2 0.43732
5 *39:5 0.4009
6 *39:6 1.05298

*RES
1 *332 *39:6 28.7411
2 *406:A1 *39:5 2.85986
3 *437:A2 *39:6 4.27536
4 *514:A2 *39:4 0.001
5 *514:A2 *39:5 12.5518
6 *39:5 *39:6 2.51786
*END

*D_NET *40 2.24085

*CONN
*P *333 I *C 5.912 36.466
*I *398:A1 I *C 6.520 15.944
*I *432:A1 I *C 6.064 10.624
*I *463:A1 I *C 6.064 12.448

*CAP
1 *333 1.56864
2 *398:A1 0.0332035
3 *432:A1 0.118302
4 *463:A1 0.00968023
5 *40:7 0.369563
6 *40:8 0.141461

*RES
1 *333 *40:8 36.5482
2 *398:A1 *40:6 0.001
3 *398:A1 *40:8 2.38929
4 *432:A1 *40:4 0.001
5 *432:A1 *40:7 4.85988
6 *463:A1 *40:5 0.001
7 *463:A1 *40:7 1.79917
8 *40:7 *40:8 6.04643
*END

*D_NET *41 2.44235

*CONN
*P *334 I *C 6.520 36.466
*I *400:A2 I *C 5.401 17.464
*I *407:A1 I *C 5.401 20.960
*I *471:A I *C 6.824 20.808
*I *511:A1 I *C 10.320 20.200
*I *511:A4 I *C 9.408 20.656

*CAP
1 *334 0.0484886
2 *400:A2 0.291022
3 *511:A1 0.105668
4 *511:A4 0.0349216
5 *41:6 0.486826
6 *41:7 0.166858
7 *41:9 0.0566415
8 *41:12 1.25193

*RES
1 *334 *41:12 28.0911
2 *400:A2 *41:7 7.684
3 *407:A1 *41:7 0.742
4 *471:A *41:9 1.0
5 *471:A *41:8 0.001
6 *511:A1 *41:11 0.001
7 *511:A1 *41:6 5.0375
8 *511:A4 *41:10 0.001
9 *511:A4 *41:6 1.9875
10 *41:6 *41:9 3.70179
11 *41:7 *41:12 3.51786
12 *41:9 *41:12 0.6625
*END

*D_NET *42 2.77397

*CONN
*P *335 I *C 23.544 36.466
*I *507:A2 I *C 7.584 24.101
*I *516:A2 I *C 12.904 24.152
*I *539:A2 I *C 7.584 25.976

*CAP
1 *335 0.447915
2 *507:A2 0.0632952
3 *516:A2 0.0728416
4 *539:A2 0.0328392
5 *42:4 0.0275128
6 *42:8 0.777323
7 *42:9 1.35225

*RES
1 *335 *42:9 40.1411
2 *507:A2 *42:5 0.001
3 *507:A2 *42:4 0.001
4 *507:A2 *42:8 2.93539
5 *516:A2 *42:7 0.001
6 *516:A2 *42:9 2.66071
7 *539:A2 *42:6 0.001
8 *539:A2 *42:8 3.50274
9 *42:8 *42:9 10.0321
*END

*D_NET *43 3.90141

*CONN
*P *336 I *C 15.944 36.466
*I *408:A1 I *C 13.457 22.480
*I *465:A4 I *C 11.992 25.824
*I *475:A I *C 8.800 29.320
*I *478:A1 I *C 17.175 22.632
*I *490:A4 I *C 12.852 19.128
*I *513:A1 I *C 15.792 26.888
*I *513:A4 I *C 14.880 27.344

*CAP
1 *336 0.185953
2 *408:A1 0.127672
3 *465:A4 0.236776
4 *475:A 0.180429
5 *478:A1 0.0863655
6 *490:A4 0.361197
7 *513:A1 0.101001
8 *513:A4 0.0434929
9 *43:12 0.553451
10 *43:13 0.427049
11 *43:14 0.0726745
12 *43:15 0.123988
13 *43:16 0.293584
14 *43:17 1.10778

*RES
1 *336 *43:17 15.7125
2 *408:A1 *43:12 3.15671
3 *465:A4 *43:14 5.10357
4 *465:A4 *43:9 0.001
5 *475:A *43:17 11.6179
6 *475:A *43:8 0.001
7 *478:A1 *43:12 7.85357
8 *490:A4 *43:13 8.96512
9 *513:A1 *43:15 3.5625
10 *513:A1 *43:11 0.001
11 *513:A4 *43:15 2.20536
12 *513:A4 *43:10 0.001
13 *43:12 *43:13 0.5
14 *43:13 *43:14 6.58929
15 *43:14 *43:16 2.5625
16 *43:15 *43:16 0.5
17 *43:16 *43:17 4.14643
*END

*D_NET *44 2.47925

*CONN
*P *337 I *C 14.424 36.466
*I *487:A6 I *C 22.176 30.384
*I *508:A2 I *C 9.712 30.789
*I *515:A2 I *C 20.200 29.320

*CAP
1 *337 0.0802023
2 *487:A6 0.225704
3 *508:A2 0.476343
4 *515:A2 0.159081
5 *44:4 0.0279108
6 *44:8 1.16037
7 *44:9 0.349637

*RES
1 *337 *44:8 10.4911
2 *487:A6 *44:9 6.23214
3 *487:A6 *44:7 0.001
4 *508:A2 *44:8 8.675
5 *508:A2 *44:5 0.001
6 *508:A2 *44:4 0.001
7 *515:A2 *44:9 4.94083
8 *515:A2 *44:6 0.001
9 *44:8 *44:9 10.4214
*END

*D_NET *45 3.23418

*CONN
*P *338 I *C 18.072 36.466
*I *409:A1 I *C 15.792 19.136
*I *470:A I *C 20.960 17.464
*I *477:A1 I *C 17.367 24.152
*I *510:A1 I *C 23.392 20.200
*I *510:A4 I *C 22.480 20.656
*I *548:A1 I *C 16.248 29.168

*CAP
1 *338 0.0494082
2 *409:A1 0.0833381
3 *470:A 0.0947723
4 *477:A1 0.0426831
5 *510:A1 0.0264701
6 *510:A4 0.018308
7 *548:A1 0.0705502
8 *45:7 1.14859
9 *45:13 0.235031
10 *45:14 0.882402
11 *45:15 0.290494
12 *45:16 0.292137

*RES
1 *338 *45:7 13.8464
2 *409:A1 *45:14 5.14643
3 *409:A1 *45:8 0.001
4 *470:A *45:15 4.09286
5 *470:A *45:10 0.001
6 *477:A1 *45:13 1.634
7 *510:A1 *45:16 3.20357
8 *510:A1 *45:12 0.001
9 *510:A4 *45:16 2.41702
10 *510:A4 *45:11 0.001
11 *548:A1 *45:7 4.30988
12 *548:A1 *45:9 0.001
13 *45:7 *45:13 9.13036
14 *45:13 *45:14 11.225
15 *45:14 *45:15 4.99286
16 *45:15 *45:16 6.57857
*END

*D_NET *46 1.0204

*CONN
*P *339 I *C 27.496 36.466
*I *414:A I *C 25.119 29.320
*I *431:A1 I *C 24.456 30.688

*CAP
1 *339 0.289885
2 *414:A 0.159271
3 *46:4 0.57124

*RES
1 *339 *46:4 15.9964
2 *414:A *46:4 5.58886
3 *431:A1 *46:4 1.0
4 *431:A1 *46:3 0.001
*END

*D_NET *47 1.13776

*CONN
*P *340 I *C 28.104 36.466
*I *393:A1 I *C 25.769 29.168
*I *410:A1 I *C 26.943 30.992
*I *582:A I *C 28.657 30.840

*CAP
1 *340 0.0286373
2 *393:A1 0.305791
3 *410:A1 0.0654342
4 *582:A 0.0298164
5 *47:4 0.569076
6 *47:5 0.139003

*RES
1 *340 *47:4 9.775
2 *393:A1 *47:4 9.5625
3 *410:A1 *47:5 3.76164
4 *582:A *47:5 1.438
5 *47:4 *47:5 1.21607
*END

*D_NET *48 1.86162

*CONN
*P *341 I *C 28.712 36.466
*I *416:A I *C 32.512 19.288
*I *430:A1 I *C 30.232 26.128

*CAP
1 *341 0.154716
2 *416:A 0.608578
3 *48:4 1.09833
4 *48:5 0.0

*RES
1 *341 *48:4 21.3804
2 *416:A *48:4 17.9206
3 *416:A *48:5 0.001
4 *430:A1 *48:4 1.0
5 *430:A1 *48:3 0.001
*END

*D_NET *49 4.12289

*CONN
*P *342 I *C 15.032 36.466
*I *411:A1 I *C 23.240 15.792
*I *444:A1 I *C 23.848 14.272
*I *591:A I *C 30.025 22.647

*CAP
1 *342 0.972905
2 *411:A1 0.0162322
3 *444:A1 0.0726719
4 *591:A 0.0920498
5 *49:4 0.754682
6 *49:7 2.21435

*RES
1 *342 *49:7 49.6411
2 *411:A1 *49:4 2.575
3 *411:A1 *49:5 0.001
4 *444:A1 *49:4 3.11786
5 *444:A1 *49:6 0.001
6 *591:A *49:7 4.70986
7 *49:4 *49:7 21.6482
*END

*D_NET *50 1.69893

*CONN
*P *343 I *C 25.368 36.466
*I *523:A3 I *C 26.584 26.584
*I *541:A2 I *C 25.672 20.757
*I *572:A I *C 26.529 24.152

*CAP
1 *343 0.0495805
2 *523:A3 0.0207678
3 *541:A2 0.27716
4 *572:A 0.0768923
5 *50:4 0.0286013
6 *50:7 0.398421
7 *50:8 0.847507

*RES
1 *343 *50:8 18.1357
2 *523:A3 *50:6 0.001
3 *523:A3 *50:8 2.93214
4 *541:A2 *50:5 0.001
5 *541:A2 *50:4 0.001