*SPEF "IEEE 1481-1999"
*DESIGN "kogge_stone_adder"
*DATE "Fri May 22 11:06:06 2026"
*VENDOR "Synopsys Inc."
*PROGRAM "StarRC"
*VERSION "U-2022.12-SP3"
*DESIGN_FLOW "PIN_CAP NONE" "NAME_SCOPE LOCAL"
*DIVIDER /
*DELIMITER :
*BUS_DELIMITER []
*T_UNIT 1.0 NS
*C_UNIT 1.0 FF
*R_UNIT 1.0 OHM
*L_UNIT 1.0 HENRY

// COMMENTS

// CORNER_NAME 
// OPERATING_TEMPERATURE 25
// GLOBAL_TEMPERATURE 25
// TCAD_GRD_FILE /home2/synopsys/libraries/SAED32_EDK/tech/starrc/nominal/saed32nm_1p9m_nominal.nxtgrd
//   TCAD_TIME_STAMP Wed Mar 16 14:34:54 2011
//   TCADGRD_VERSION 72
// galaxy_comments_begin
//   local_nodeid
// galaxy_comments_end

*NAME_MAP
*359 A[31]
*360 A[30]
*361 A[29]
*362 A[28]
*363 A[27]
*364 A[26]
*365 A[25]
*366 A[24]
*367 A[23]
*368 A[22]
*369 A[21]
*370 A[20]
*371 A[19]
*372 A[18]
*373 A[17]
*374 A[16]
*375 A[15]
*376 A[14]
*377 A[13]
*378 A[12]
*379 A[11]
*380 A[10]
*381 A[9]
*382 A[8]
*383 A[7]
*384 A[6]
*385 A[5]
*386 A[4]
*387 A[3]
*388 A[2]
*389 A[1]
*390 A[0]
*391 B[31]
*392 B[30]
*393 B[29]
*394 B[28]
*395 B[27]
*396 B[26]
*397 B[25]
*398 B[24]
*399 B[23]
*400 B[22]
*401 B[21]
*402 B[20]
*403 B[19]
*404 B[18]
*405 B[17]
*406 B[16]
*407 B[15]
*408 B[14]
*409 B[13]
*410 B[12]
*411 B[11]
*412 B[10]
*413 B[9]
*414 B[8]
*415 B[7]
*416 B[6]
*417 B[5]
*418 B[4]
*419 B[3]
*420 B[2]
*421 B[1]
*422 B[0]
*423 Cin
*424 Sum[31]
*425 Sum[30]
*426 Sum[29]
*427 Sum[28]
*428 Sum[27]
*429 Sum[26]
*430 Sum[25]
*431 Sum[24]
*432 Sum[23]
*433 Sum[22]
*434 Sum[21]
*435 Sum[20]
*436 Sum[19]
*437 Sum[18]
*438 Sum[17]
*439 Sum[16]
*440 Sum[15]
*441 Sum[14]
*442 Sum[13]
*443 Sum[12]
*444 Sum[11]
*445 Sum[10]
*446 Sum[9]
*447 Sum[8]
*448 Sum[7]
*449 Sum[6]
*450 Sum[5]
*451 Sum[4]
*452 Sum[3]
*453 Sum[2]
*454 Sum[1]
*455 Sum[0]
*456 Cout
*457 HFSBUF_53_3
*458 HFSBUF_77_1
*459 U197
*460 U198
*461 U199
*462 U200
*463 U201
*464 U203
*465 U204
*466 U206
*467 U207
*468 U209
*469 U210
*470 U211
*471 U215
*472 U217
*473 U219
*474 U222
*475 U223
*476 U232
*477 U235
*478 U236
*479 U241
*480 U244
*481 U245
*482 U257
*483 U259
*484 U270
*485 U272
*486 U273
*487 U274
*488 U277
*489 U282
*490 U285
*491 U286
*492 U287
*493 U288
*494 U289
*495 U290
*496 U291
*497 U292
*498 U293
*499 U294
*500 U297
*501 U298
*502 U299
*503 U300
*504 U301
*505 U302
*506 U303
*507 U304
*508 U305
*509 U306
*510 U310
*511 U313
*512 U314
*513 U315
*514 U316
*515 U317
*516 U318
*517 U322
*518 U324
*519 U325
*520 U326
*521 U330
*522 U331
*523 U332
*524 U336
*525 U338
*526 U342
*527 U347
*528 U349
*529 U350
*530 U354
*531 U355
*532 U356
*533 U360
*534 U362
*535 U366
*536 U371
*537 U372
*538 U375
*539 U380
*540 U382
*541 U383
*542 U387
*543 U388
*544 U389
*545 U390
*546 U391
*547 U395
*548 U396
*549 U397
*550 U401
*551 U402
*552 U403
*553 U404
*554 U405
*555 U408
*556 U409
*557 U411
*558 U417
*559 U418
*560 U422
*561 U429
*562 U435
*563 U436
*564 U437
*565 U438
*566 U439
*567 U440
*568 U441
*569 U442
*570 U445
*571 U446
*572 U447
*573 U448
*574 U449
*575 U450
*576 U451
*577 U452
*578 U453
*579 U454
*580 U455
*581 U458
*582 U459
*583 U461
*584 U462
*585 U463
*586 U464
*587 U465
*588 U466
*589 U467
*590 U468
*591 U472
*592 U473
*593 U474
*594 U476
*595 U477
*596 U478
*597 U479
*598 U480
*599 U481
*600 U482
*601 U487
*602 U490
*603 U491
*604 U492
*605 U493
*606 U494
*607 U495
*608 U496
*609 U497
*610 U500
*611 U501
*612 U502
*613 U503
*614 U504
*615 U505
*616 U506
*617 U510
*618 U511
*619 U512
*620 U513
*621 U516
*622 U517
*623 U518
*624 U519
*625 U520
*626 U526
*627 U527
*628 U528
*629 ctmTdsLR_1_100
*630 ctmTdsLR_1_105
*631 ctmTdsLR_1_107
*632 ctmTdsLR_1_109
*633 ctmTdsLR_1_111
*634 ctmTdsLR_1_113
*635 ctmTdsLR_1_115
*636 ctmTdsLR_1_117
*637 ctmTdsLR_1_119
*638 ctmTdsLR_1_121
*639 ctmTdsLR_1_124
*640 ctmTdsLR_1_127
*641 ctmTdsLR_1_130
*642 ctmTdsLR_1_131
*643 ctmTdsLR_1_133
*644 ctmTdsLR_1_135
*645 ctmTdsLR_1_137
*646 ctmTdsLR_1_139
*647 ctmTdsLR_1_141
*648 ctmTdsLR_1_142
*649 ctmTdsLR_1_143
*650 ctmTdsLR_1_144
*651 ctmTdsLR_1_146
*652 ctmTdsLR_1_147
*653 ctmTdsLR_1_17
*654 ctmTdsLR_1_24
*655 ctmTdsLR_1_34
*656 ctmTdsLR_1_42
*657 ctmTdsLR_1_45
*658 ctmTdsLR_1_46
*659 ctmTdsLR_1_48
*660 ctmTdsLR_1_50
*661 ctmTdsLR_1_52
*662 ctmTdsLR_1_53
*663 ctmTdsLR_1_55
*664 ctmTdsLR_1_57
*665 ctmTdsLR_1_61
*666 ctmTdsLR_1_62
*667 ctmTdsLR_1_63
*668 ctmTdsLR_1_65
*669 ctmTdsLR_1_66
*670 ctmTdsLR_1_67
*671 ctmTdsLR_1_68
*672 ctmTdsLR_1_69
*673 ctmTdsLR_1_70
*674 ctmTdsLR_1_71
*675 ctmTdsLR_1_72
*676 ctmTdsLR_1_73
*677 ctmTdsLR_1_75
*678 ctmTdsLR_1_78
*679 ctmTdsLR_1_79
*680 ctmTdsLR_1_81
*681 ctmTdsLR_1_83
*682 ctmTdsLR_1_85
*683 ctmTdsLR_1_87
*684 ctmTdsLR_1_88
*685 ctmTdsLR_1_90
*686 ctmTdsLR_1_91
*687 ctmTdsLR_1_93
*688 ctmTdsLR_1_95
*689 ctmTdsLR_1_97
*690 ctmTdsLR_1_98
*691 ctmTdsLR_1_99
*692 ctmTdsLR_2_101
*693 ctmTdsLR_2_106
*694 ctmTdsLR_2_108
*695 ctmTdsLR_2_110
*696 ctmTdsLR_2_112
*697 ctmTdsLR_2_116
*698 ctmTdsLR_2_118
*699 ctmTdsLR_2_120
*700 ctmTdsLR_2_122
*701 ctmTdsLR_2_125
*702 ctmTdsLR_2_128
*703 ctmTdsLR_2_132
*704 ctmTdsLR_2_134
*705 ctmTdsLR_2_136
*706 ctmTdsLR_2_138
*707 ctmTdsLR_2_148
*708 ctmTdsLR_2_18
*709 ctmTdsLR_2_23
*710 ctmTdsLR_2_25
*711 ctmTdsLR_2_35
*712 ctmTdsLR_2_43
*713 ctmTdsLR_2_51
*714 ctmTdsLR_2_54
*715 ctmTdsLR_2_56
*716 ctmTdsLR_2_58
*717 ctmTdsLR_2_80
*718 ctmTdsLR_2_82
*719 ctmTdsLR_2_84
*720 ctmTdsLR_2_86
*721 ctmTdsLR_2_89
*722 ctmTdsLR_2_92
*723 ctmTdsLR_2_94
*724 ctmTdsLR_2_96
*725 ctmTdsLR_3_102
*726 ctmTdsLR_3_123
*727 ctmTdsLR_3_126
*728 ctmTdsLR_3_19
*729 ctmTdsLR_3_28
*730 ctmTdsLR_3_31
*731 ctmTdsLR_3_36
*732 ctmTdsLR_3_44
*733 ctmTdsLR_4_20
*734 ctmTdsLR_6_39
*735 ctmTdsLR_7_40
*736 ctmTdsLR_8_41
*737 ropt_h_inst_149
*738 ropt_h_inst_150
*739 ropt_h_inst_151
*740 ropt_h_inst_152
*741 ropt_h_inst_153
*742 ropt_h_inst_154
*743 ropt_h_inst_155
*744 ropt_h_inst_156
*1 A[31]
*2 A[30]
*3 A[29]
*4 A[28]
*5 A[27]
*6 A[26]
*7 A[25]
*8 A[24]
*9 A[23]
*10 A[22]
*11 A[21]
*12 A[20]
*13 A[19]
*14 A[18]
*15 A[17]
*16 A[16]
*17 A[15]
*18 A[14]
*19 A[13]
*20 A[12]
*21 A[11]
*22 A[10]
*23 A[9]
*24 A[8]
*25 A[7]
*26 A[6]
*27 A[5]
*28 A[4]
*29 A[3]
*30 A[2]
*31 A[1]
*32 A[0]
*33 B[31]
*34 B[30]
*35 B[29]
*36 B[28]
*37 B[27]
*38 B[26]
*39 B[25]
*40 B[24]
*41 B[23]
*42 B[22]
*43 B[21]
*44 B[20]
*45 B[19]
*46 B[18]
*47 B[17]
*48 B[16]
*49 B[15]
*50 B[14]
*51 B[13]
*52 B[12]
*53 B[11]
*54 B[10]
*55 B[9]
*56 B[8]
*57 B[7]
*58 B[6]
*59 B[5]
*60 B[4]
*61 B[3]
*62 B[2]
*63 B[1]
*64 B[0]
*65 Cin
*66 Sum[31]
*67 Sum[30]
*68 Sum[29]
*69 Sum[28]
*70 Sum[27]
*71 Sum[26]
*72 Sum[25]
*73 Sum[24]
*74 Sum[23]
*75 Sum[22]
*76 Sum[21]
*77 Sum[20]
*78 Sum[19]
*79 Sum[18]
*80 Sum[17]
*81 Sum[16]
*82 Sum[15]
*83 Sum[14]
*84 Sum[13]
*85 Sum[12]
*86 Sum[11]
*87 Sum[10]
*88 Sum[9]
*89 Sum[8]
*90 Sum[7]
*91 Sum[6]
*92 Sum[5]
*93 Sum[4]
*94 Sum[3]
*95 Sum[2]
*96 Sum[1]
*97 Sum[0]
*98 Cout
*102 HFSNET_1
*103 HFSNET_3
*104 n197
*105 n198
*106 n199
*107 n200
*108 n205
*109 n206
*110 n207
*111 n208
*112 n209
*113 n210
*114 n212
*115 n215
*116 n216
*117 n217
*118 n218
*119 n219
*120 n227
*121 n228
*122 n230
*123 n231
*124 n232
*125 n236
*126 n237
*127 n238
*128 n240
*129 n241
*130 n245
*131 n247
*132 n250
*133 n251
*134 n252
*135 n253
*136 n255
*137 n256
*138 n258
*139 n260
*140 n263
*141 n264
*142 n265
*143 n266
*144 n269
*145 n270
*146 n271
*147 n272
*148 n277
*149 n280
*150 n289
*151 n301
*152 n306
*153 n307
*154 n310
*155 n311
*156 n317
*157 n318
*158 n319
*159 n322
*160 n323
*161 n326
*162 n327
*163 n329
*164 n330
*165 n335
*166 n344
*167 n345
*168 n346
*169 n347
*170 n349
*171 n350
*172 n351
*173 n352
*174 n354
*175 n355
*176 n356
*177 n357
*178 n358
*179 n359
*180 n360
*181 n361
*182 n362
*183 n363
*184 n364
*185 n365
*186 n367
*187 n368
*188 n369
*189 n370
*190 n371
*191 n372
*192 n373
*193 n374
*194 n375
*195 n376
*196 n377
*197 n378
*198 n379
*199 n380
*200 n382
*201 n383
*202 n384
*203 n385
*204 n386
*205 n388
*206 n389
*207 n390
*208 n391
*209 n392
*210 n393
*211 n394
*212 n395
*213 n396
*214 n397
*215 n398
*216 n399
*217 n400
*218 n403
*219 n404
*220 n405
*221 n406
*222 n407
*223 n408
*224 n409
*225 n410
*226 n412
*227 n413
*228 n414
*229 n415
*230 n416
*231 n417
*232 n418
*233 n419
*234 n420
*235 n421
*236 n422
*237 n423
*238 n426
*239 n428
*240 n429
*241 n430
*242 n431
*243 n432
*244 n433
*245 n435
*246 n436
*247 n437
*248 n438
*249 n439
*250 n440
*251 n441
*252 n442
*253 n443
*254 n444
*255 n445
*256 n446
*257 n447
*258 n448
*259 n450
*260 n451
*261 n452
*262 n453
*263 n454
*264 n455
*265 n456
*266 n457
*267 n458
*268 n459
*269 n460
*270 n461
*271 n462
*272 n464
*273 n465
*274 n466
*275 n467
*276 n468
*277 n469
*278 n470
*279 n471
*280 n473
*281 n474
*282 n475
*283 n476
*284 n478
*285 n479
*286 n480
*287 n481
*288 n482
*289 n483
*290 n484
*291 n485
*292 n486
*293 n487
*294 n488
*295 n490
*296 n491
*297 n494
*298 n495
*299 n496
*300 n497
*301 popt_net_0
*302 popt_net_1
*303 popt_net_10
*304 popt_net_11
*305 popt_net_12
*306 popt_net_14
*307 popt_net_15
*308 popt_net_16
*309 popt_net_17
*310 popt_net_2
*311 popt_net_3
*312 popt_net_4
*313 popt_net_6
*314 popt_net_7
*315 popt_net_9
*316 ropt_net_54
*317 ropt_net_55
*318 ropt_net_56
*319 ropt_net_57
*320 ropt_net_58
*321 ropt_net_59
*322 ropt_net_60
*323 ropt_net_61
*324 tmp_net18
*325 tmp_net19
*326 tmp_net20
*327 tmp_net21
*328 tmp_net22
*329 tmp_net23
*330 tmp_net24
*331 tmp_net25
*332 tmp_net26
*333 tmp_net27
*334 tmp_net28
*335 tmp_net29
*336 tmp_net30
*337 tmp_net31
*338 tmp_net32
*339 tmp_net33
*340 tmp_net35
*341 tmp_net36
*342 tmp_net37
*343 tmp_net38
*344 tmp_net39
*345 tmp_net40
*346 tmp_net41
*347 tmp_net42
*348 tmp_net43
*349 tmp_net44
*350 tmp_net45
*351 tmp_net46
*352 tmp_net47
*353 tmp_net48
*354 tmp_net49
*355 tmp_net50
*356 tmp_net51
*357 tmp_net52
*358 tmp_net53

*PORTS

*359 I
*360 I
*361 I
*362 I
*363 I
*364 I
*365 I
*366 I
*367 I
*368 I
*369 I
*370 I
*371 I
*372 I
*373 I
*374 I
*375 I
*376 I
*377 I
*378 I
*379 I
*380 I
*381 I
*382 I
*383 I
*384 I
*385 I
*386 I
*387 I
*388 I
*389 I
*390 I
*391 I
*392 I
*393 I
*394 I
*395 I
*396 I
*397 I
*398 I
*399 I
*400 I
*401 I
*402 I
*403 I
*404 I
*405 I
*406 I
*407 I
*408 I
*409 I
*410 I
*411 I
*412 I
*413 I
*414 I
*415 I
*416 I
*417 I
*418 I
*419 I
*420 I
*421 I
*422 I
*423 I
*424 O
*425 O
*426 O
*427 O
*428 O
*429 O
*430 O
*431 O
*432 O
*433 O
*434 O
*435 O
*436 O
*437 O
*438 O
*439 O
*440 O
*441 O
*442 O
*443 O
*444 O
*445 O
*446 O
*447 O
*448 O
*449 O
*450 O
*451 O
*452 O
*453 O
*454 O
*455 O
*456 O

*D_NET *1 3.41566

*CONN
*P *359 I *C 0.286 43.000
*I *569:A2 I *C 22.784 20.757
*I *625:A I *C 21.665 20.808

*CAP
1 *359 2.01473
2 *569:A2 0.0338523
3 *1:3 0.0246705
4 *1:4 1.34242
5 *1:5 0.0

*RES
1 *359 *1:4 79.0188
2 *569:A2 *1:4 3.475
3 *569:A2 *1:5 0.001
4 *569:A2 *1:3 0.001
5 *625:A *1:4 0.134
*END

*D_NET *2 2.23951

*CONN
*P *360 I *C 0.286 33.272
*I *515:A2 I *C 11.840 15.944
*I *564:A I *C 13.208 19.288

*CAP
1 *360 0.437452
2 *515:A2 0.241422
3 *564:A 0.0901744
4 *2:5 1.47046

*RES
1 *360 *2:5 46.8946
2 *515:A2 *2:3 0.001
3 *515:A2 *2:5 7.62143
4 *564:A *2:4 0.001
5 *564:A *2:5 3.24821
*END

*D_NET *3 1.98541

*CONN
*P *361 I *C 0.286 37.832
*I *512:A2 I *C 9.712 19.288
*I *566:A I *C 7.736 19.288

*CAP
1 *361 0.520946
2 *512:A2 0.0240486
3 *3:4 1.44041
4 *3:5 0.0

*RES
1 *361 *3:4 46.9268
2 *512:A2 *3:4 4.33214
3 *512:A2 *3:5 0.001
4 *566:A *3:4 1.0
5 *566:A *3:3 0.001
*END

*D_NET *4 1.91871

*CONN
*P *362 I *C 0.286 30.232
*I *510:A2 I *C 6.976 15.944
*I *627:A2 I *C 10.320 14.424
*I *683:A2 I *C 8.496 15.184

*CAP
1 *362 0.301344
2 *510:A2 0.00811674
3 *627:A2 0.121247
4 *4:4 0.274843
5 *4:8 1.21316

*RES
1 *362 *4:8 37.3946
2 *510:A2 *4:8 1.79917
3 *510:A2 *4:5 0.001
4 *627:A2 *4:4 5.85179
5 *627:A2 *4:7 0.001
6 *683:A2 *4:4 1.17321
7 *683:A2 *4:6 0.001
8 *4:4 *4:8 4.81964
*END

*D_NET *5 1.70917

*CONN
*P *363 I *C 0.286 23.544
*I *518:A1 I *C 16.400 25.824
*I *520:A1 I *C 18.376 26.128
*I *720:A2 I *C 17.160 24.000

*CAP
1 *363 0.0669979
2 *518:A1 0.0280902
3 *520:A1 0.0535058
4 *720:A2 0.0130781
5 *5:7 1.29443
6 *5:8 0.253071

*RES
1 *363 *5:7 31.1518
2 *518:A1 *5:8 2.97679
3 *518:A1 *5:4 0.001
4 *520:A1 *5:8 4.09286
5 *520:A1 *5:6 0.001
6 *720:A2 *5:7 1.5
7 *720:A2 *5:5 0.001
8 *5:7 *5:8 2.78929
*END

*D_NET *6 2.3377

*CONN
*P *364 I *C 0.286 19.896
*I *517:A1 I *C 20.048 24.304
*I *665:A1 I *C 23.361 25.961

*CAP
1 *364 0.294455
2 *517:A1 0.0349884
3 *665:A1 0.172477
4 *6:3 1.83578
5 *6:4 0.0

*RES
1 *364 *6:3 42.3786
2 *517:A1 *6:3 2.87857
3 *517:A1 *6:4 0.001
4 *665:A1 *6:3 11.8165
*END

*D_NET *7 0.917507

*CONN
*P *365 I *C 0.286 21.416
*I *523:A2 I *C 6.368 24.152
*I *666:A2 I *C 5.882 26.128

*CAP
1 *365 0.224224
2 *523:A2 0.0145419
3 *666:A2 0.0305644
4 *7:3 0.0298392
5 *7:6 0.618337

*RES
1 *365 *7:6 15.1375
2 *523:A2 *7:6 2.11786
3 *523:A2 *7:5 0.001
4 *666:A2 *7:6 4.77516
5 *666:A2 *7:4 0.001
6 *666:A2 *7:3 0.0821839
*END

*D_NET *8 0.996751

*CONN
*P *366 I *C 0.286 22.328
*I *525:A1 I *C 9.408 22.480
*I *618:A2 I *C 6.976 22.784
*I *618:A5 I *C 7.584 22.632
*I *667:A1 I *C 5.456 20.732

*CAP
1 *366 0.0446569
2 *525:A1 0.100327
3 *618:A2 0.00557122
4 *667:A1 0.116028
5 *8:5 0.0257084
6 *8:6 0.131468
7 *8:10 0.0434188
8 *8:12 0.529572

*RES
1 *366 *8:12 8.81964
2 *525:A1 *8:11 0.001
3 *525:A1 *8:6 4.15893
4 *618:A2 *8:8 0.001
5 *618:A2 *8:6 2.53036
6 *618:A5 *8:10 1.0
7 *618:A5 *8:9 0.001
8 *667:A1 *8:7 0.001
9 *667:A1 *8:5 0.001
10 *667:A1 *8:12 4.13571
11 *8:6 *8:10 0.173214
12 *8:10 *8:12 5.26429
*END

*D_NET *9 1.76789

*CONN
*P *367 I *C 0.286 18.984
*I *528:A1 I *C 8.192 29.016
*I *529:A1 I *C 7.736 32.816
*I *717:A2 I *C 9.864 30.688

*CAP
1 *367 0.693378
2 *529:A1 0.0371711
3 *717:A2 0.0185296
4 *9:4 0.639965
5 *9:8 0.378845

*RES
1 *367 *9:4 32.3188
2 *528:A1 *9:6 0.001
3 *528:A1 *9:4 1.345
4 *529:A1 *9:5 0.001
5 *529:A1 *9:8 5.45
6 *717:A2 *9:7 0.001
7 *717:A2 *9:8 4.56071
8 *9:4 *9:8 3.28929
*END

*D_NET *10 2.68465

*CONN
*P *368 I *C 0.286 8.648
*I *527:A1 I *C 9.961 35.856
*I *668:A1 I *C 8.952 34.108

*CAP
1 *368 0.6557
2 *527:A1 0.0667634
3 *668:A1 0.00874384
4 *10:3 0.0251152
5 *10:5 1.92833

*RES
1 *368 *10:5 62.0518
2 *527:A1 *10:5 5.56514
3 *668:A1 *10:5 0.664286
4 *668:A1 *10:4 0.001
5 *668:A1 *10:3 0.001
*END

*D_NET *11 3.38066

*CONN
*P *369 I *C 0.286 3.480
*I *532:A2 I *C 10.199 39.352
*I *669:A2 I *C 8.648 39.504

*CAP
1 *369 0.977233
2 *532:A2 0.0436595
3 *11:5 2.35977

*RES
1 *369 *11:5 80.0107
2 *532:A2 *11:5 3.77536
3 *669:A2 *11:5 0.25
4 *669:A2 *11:4 0.001
5 *669:A2 *11:3 0.0747126
*END

*D_NET *12 1.92192

*CONN
*P *370 I *C 0.286 37.224
*I *534:A1 I *C 15.792 41.024
*I *611:A2 I *C 17.312 40.720
*I *611:A5 I *C 17.918 40.876
*I *670:A1 I *C 13.391 40.820

*CAP
1 *370 0.756719
2 *611:A5 0.0457465
3 *670:A1 0.0345239
4 *12:5 0.757621
5 *12:7 0.0727317
6 *12:9 0.254582

*RES
1 *370 *12:5 29.8268
2 *534:A1 *12:7 1.0
3 *534:A1 *12:6 0.001
4 *611:A2 *12:9 1.0
5 *611:A2 *12:8 0.001
6 *611:A5 *12:9 2.14679
7 *670:A1 *12:5 2.046
8 *12:5 *12:7 4.96071
9 *12:7 *12:9 3.10536
*END

*D_NET *13 3.81971

*CONN
*P *371 I *C 0.286 2.872
*I *558:A1 I *C 22.024 30.688
*I *561:A1 I *C 20.960 32.512
*I *685:A2 I *C 21.735 34.032

*CAP
1 *371 1.07277
2 *558:A1 0.0157676
3 *561:A1 0.0594363
4 *685:A2 0.0714778
5 *13:6 2.43905
6 *13:7 0.161206

*RES
1 *371 *13:6 88.1518
2 *558:A1 *13:6 1.84643
3 *558:A1 *13:5 0.001
4 *561:A1 *13:7 2.66071
5 *561:A1 *13:4 0.001
6 *685:A2 *13:7 3.913
7 *13:6 *13:7 3.06071
*END

*D_NET *14 2.19598

*CONN
*P *372 I *C 0.286 36.312
*I *559:A1 I *C 24.760 39.200
*I *677:A1 I *C 24.131 37.528

*CAP
1 *372 0.333973
2 *559:A1 0.0767152
3 *677:A1 0.0889622
4 *14:4 1.69633

*RES
1 *372 *14:4 44.9946
2 *559:A1 *14:4 5.17857
3 *559:A1 *14:3 0.001
4 *677:A1 *14:4 1.93393
*END

*D_NET *15 3.77123

*CONN
*P *373 I *C 0.286 9.864
*I *536:A2 I *C 28.529 30.840
*I *671:A2 I *C 29.806 30.688

*CAP
1 *373 1.03616
2 *536:A2 0.0252745
3 *671:A2 0.0113488
4 *15:3 0.0265636
5 *15:4 2.67188
6 *15:5 0.0

*RES
1 *373 *15:4 88.1839
2 *536:A2 *15:4 1.2575
3 *671:A2 *15:4 2.57321
4 *671:A2 *15:5 0.001
5 *671:A2 *15:3 0.001
*END

*D_NET *16 4.12931

*CONN
*P *374 I *C 0.286 17.768
*I *537:A1 I *C 27.192 37.680
*I *603:A2 I *C 28.864 40.720
*I *603:A5 I *C 29.472 40.872
*I *672:A1 I *C 26.888 40.796

*CAP
1 *374 1.49518
2 *537:A1 0.0170874
3 *603:A5 0.0399384
4 *672:A1 0.0245458
5 *16:5 0.0257335
6 *16:9 0.19894
7 *16:11 2.20024
8 *16:12 0.127643

*RES
1 *374 *16:11 84.4161
2 *537:A1 *16:7 0.001
3 *537:A1 *16:11 1.5
4 *603:A2 *16:9 1.0
5 *603:A2 *16:8 0.001
6 *603:A5 *16:10 0.001
7 *603:A5 *16:9 2.16071
8 *672:A1 *16:6 0.001
9 *672:A1 *16:5 0.001
10 *672:A1 *16:12 1.70536
11 *16:9 *16:12 3.60357
12 *16:11 *16:12 4.91786
*END

*D_NET *17 2.83867

*CONN
*P *375 I *C 0.286 6.520
*I *477:A1 I *C 25.824 15.640
*I *540:A1 I *C 23.392 16.096
*I *719:A2 I *C 26.128 17.312

*CAP
1 *375 0.827
2 *477:A1 0.0392674
3 *719:A2 0.0266154
4 *17:5 1.75904
5 *17:8 0.186754

*RES
1 *375 *17:5 58.8696
2 *477:A1 *17:6 0.001
3 *477:A1 *17:8 2.41702
4 *540:A1 *17:5 1.0
5 *540:A1 *17:4 0.001
6 *719:A2 *17:7 0.001
7 *719:A2 *17:8 3.77417
8 *17:5 *17:8 4.91786
*END

*D_NET *18 2.07653

*CONN
*P *376 I *C 0.286 20.504
*I *541:A1 I *C 27.344 20.960
*I *673:A1 I *C 28.135 19.273

*CAP
1 *376 0.385784
2 *541:A1 0.0256513
3 *673:A1 0.115682
4 *18:4 1.54941

*RES
1 *376 *18:4 48.9911
2 *541:A1 *18:4 2.41702
3 *541:A1 *18:3 0.001
4 *673:A1 *18:4 4.56617
*END

*D_NET *19 3.08205

*CONN
*P *377 I *C 0.286 31.144
*I *543:A2 I *C 31.752 25.976
*I *674:A2 I *C 33.546 26.128

*CAP
1 *377 0.780449
2 *543:A2 0.0112584
3 *674:A2 0.200703
4 *19:3 0.0293738
5 *19:4 2.06027
6 *19:6 0.0

*RES
1 *377 *19:4 65.4821
2 *543:A2 *19:4 1.48929
3 *543:A2 *19:5 0.001
4 *674:A2 *19:4 3.88864
5 *674:A2 *19:6 0.001
6 *674:A2 *19:3 0.0821839
*END

*D_NET *20 3.24397

*CONN
*P *378 I *C 0.286 1.656
*I *545:A1 I *C 36.616 10.928
*I *675:A1 I *C 38.167 10.724

*CAP
1 *378 1.08541
2 *675:A1 0.0515782
3 *20:4 2.10698

*RES
1 *378 *20:4 81.9857
2 *545:A1 *20:4 1.0
3 *545:A1 *20:3 0.001
4 *675:A1 *20:4 3.74957
*END

*D_NET *21 2.05096

*CONN
*P *379 I *C 0.286 22.936
*I *553:A1 I *C 27.344 22.480
*I *557:A1 I *C 26.584 24.000

*CAP
1 *379 0.366546
2 *553:A1 0.0704895
3 *557:A1 0.0223691
4 *21:5 1.59156

*RES
1 *379 *21:5 47.3625
2 *553:A1 *21:5 3.32321
3 *553:A1 *21:4 0.001
4 *557:A1 *21:5 3.20357
5 *557:A1 *21:3 0.001
*END

*D_NET *22 5.27281

*CONN
*P *380 I *C 0.286 44.520
*I *490:A1 I *C 35.856 24.456
*I *676:A1 I *C 37.559 24.100
*I *743:A I *C 40.817 25.991

*CAP
1 *380 1.77149
2 *676:A1 0.0363607
3 *743:A 0.328895
4 *22:5 2.93918
5 *22:6 0.19689

*RES
1 *380 *22:5 100.462
2 *490:A1 *22:5 1.0
3 *490:A1 *22:4 0.001
4 *676:A1 *22:6 0.742
5 *743:A *22:6 10.5456
6 *22:5 *22:6 3.51786
*END

*D_NET *23 2.7864

*CONN
*P *381 I *C 0.286 35.704
*I *458:A I *C 28.864 25.976
*I *664:A1 I *C 27.952 25.672

*CAP
1 *381 0.806058
2 *458:A 0.0646813
3 *23:4 1.91566
4 *23:5 0.0

*RES
1 *381 *23:4 67.8268
2 *458:A *23:4 3.80631
3 *458:A *23:5 0.001
4 *664:A1 *23:4 1.0
5 *664:A1 *23:3 0.001
*END

*D_NET *24 0.961526

*CONN
*P *382 I *C 0.286 14.728
*I *738:A I *C 14.120 15.944

*CAP
1 *382 0.17235
2 *24:3 0.789176

*RES
1 *382 *24:3 27.3839
2 *738:A *24:3 1.0
3 *738:A *24:2 0.001
*END

*D_NET *25 4.33506

*CONN
*P *383 I *C 0.286 5.912
*I *626:B I *C 36.616 27.344

*CAP
1 *383 1.44891
2 *25:3 2.88615

*RES
1 *383 *25:3 103.7
2 *626:B *25:3 1.0
3 *626:B *25:2 0.001
*END

*D_NET *26 2.41136

*CONN
*P *384 I *C 0.286 32.360
*I *491:A2 I *C 30.506 34.032
*I *508:A1 I *C 32.208 34.488

*CAP
1 *384 0.565531
2 *491:A2 0.0889897
3 *508:A1 0.0373078
4 *26:3 0.0272524
5 *26:6 1.69228

*RES
1 *384 *26:6 58.8375
2 *491:A2 *26:6 2.48571
3 *491:A2 *26:4 0.001
4 *491:A2 *26:3 0.001
5 *508:A1 *26:6 3.27857
6 *508:A1 *26:5 0.001
*END

*D_NET *27 2.11341

*CONN
*P *385 I *C 0.286 39.048
*I *492:A1 I *C 25.029 40.720
*I *507:A2 I *C 25.824 37.528

*CAP
1 *385 0.250553
2 *492:A1 0.013944
3 *507:A2 0.115497
4 *27:4 1.65299
5 *27:5 0.0804233

*RES
1 *385 *27:4 43.0625
2 *492:A1 *27:5 0.001
3 *507:A2 *27:4 6.79202
4 *507:A2 *27:3 0.001
5 *27:4 *27:5 5.87045
*END

*D_NET *28 3.19609

*CONN
*P *386 I *C 0.286 38.440
*I *494:A2 I *C 39.626 39.504
*I *505:A1 I *C 39.504 41.176

*CAP
1 *386 0.764466
2 *494:A2 0.0299679
3 *505:A1 0.11159
4 *28:3 0.0296167
5 *28:4 2.26046
6 *28:6 0.0

*RES
1 *386 *28:4 72.8875
2 *494:A2 *28:4 1.66992
3 *494:A2 *28:6 0.001
4 *494:A2 *28:3 0.0821839
5 *505:A1 *28:4 4.41524
6 *505:A1 *28:5 0.001
*END

*D_NET *29 2.9385

*CONN
*P *387 I *C 0.286 45.128
*I *495:A1 I *C 37.255 40.820
*I *504:A2 I *C 37.630 39.352

*CAP
1 *387 1.19138
2 *504:A2 0.0401342
3 *29:3 1.70698

*RES
1 *387 *29:3 74.9922
2 *495:A1 *29:3 0.852
3 *504:A2 *29:3 4.764
*END

*D_NET *30 4.49105

*CONN
*P *388 I *C 0.286 4.696
*I *498:A1 I *C 30.653 30.688
*I *502:A2 I *C 32.548 32.664

*CAP
1 *388 1.36049
2 *498:A1 0.0138294
3 *502:A2 0.260278
4 *30:3 2.76712
5 *30:4 0.0893227

*RES
1 *388 *30:3 100.127
2 *498:A1 *30:4 0.001
3 *502:A2 *30:3 9.12386
4 *30:3 *30:4 2.036
*END

*D_NET *31 3.78327

*CONN
*P *389 I *C 0.286 7.128
*I *499:A2 I *C 32.026 27.344
*I *501:A1 I *C 31.904 29.016

*CAP
1 *389 1.10662
2 *499:A2 0.0232234
3 *501:A1 0.0183893
4 *31:3 0.0276757
5 *31:6 2.60736

*RES
1 *389 *31:6 92.4946
2 *499:A2 *31:5 0.001
3 *499:A2 *31:3 0.001
4 *499:A2 *31:6 1.29286
5 *501:A1 *31:4 0.001
6 *501:A1 *31:6 4.58845
*END

*D_NET *32 3.31115

*CONN
*P *390 I *C 0.286 2.264
*I *500:A1 I *C 36.920 7.736
*I *687:A2 I *C 37.224 5.152
*I *715:A4 I *C 35.400 8.952

*CAP
1 *390 0.823534
2 *500:A1 0.0094837
3 *687:A2 0.00678182
4 *715:A4 0.117935
5 *32:7 0.133756
6 *32:8 2.21966

*RES
1 *390 *32:8 71.3232
2 *500:A1 *32:5 0.001
3 *500:A1 *32:7 1.5
4 *687:A2 *32:6 0.001
5 *687:A2 *32:8 1.5
6 *715:A4 *32:4 0.001
7 *715:A4 *32:7 5.99286
8 *32:7 *32:8 5.00536
*END

*D_NET *33 3.57072

*CONN
*P *391 I *C 41.784 46.498
*I *569:A1 I *C 23.143 20.960
*I *624:A I *C 25.064 20.808

*CAP
1 *391 1.77101
2 *569:A1 0.0404143
3 *624:A 0.00596431
4 *33:3 1.75333
5 *33:4 0.0

*RES
1 *391 *33:3 76.4161
2 *569:A1 *33:3 4.35807
3 *624:A *33:3 1.21786
4 *624:A *33:4 0.001
*END

*D_NET *34 2.45067

*CONN
*P *392 I *C 13.512 46.498
*I *515:A1 I *C 12.144 16.096
*I *563:A I *C 13.968 19.288

*CAP
1 *392 1.44815
2 *515:A1 0.263151
3 *563:A 0.0466038
4 *34:5 0.692769

*RES
1 *392 *34:5 48.7625
2 *515:A1 *34:5 8.97857
3 *515:A1 *34:3 0.001
4 *563:A *34:5 2.43393
5 *563:A *34:4 0.001
*END

*D_NET *35 2.60116

*CONN
*P *393 I *C 15.336 46.498
*I *512:A1 I *C 10.016 19.440
*I *565:A I *C 8.703 19.288

*CAP
1 *393 1.60228
2 *565:A 0.135949
3 *35:4 0.862927

*RES
1 *393 *35:4 58.0232
2 *512:A1 *35:4 1.0
3 *512:A1 *35:3 0.001
4 *565:A *35:4 3.363
*END

*D_NET *36 2.86083

*CONN
*P *394 I *C 2.568 46.498
*I *510:A1 I *C 7.073 15.640
*I *627:A1 I *C 10.168 14.120
*I *683:A1 I *C 8.344 15.944

*CAP
1 *394 1.40564
2 *510:A1 0.0900577
3 *627:A1 0.1488
4 *36:4 0.883619
5 *36:6 0.332708
6 *36:7 0.0

*RES
1 *394 *36:4 61.8232
2 *510:A1 *36:4 2.604
3 *627:A1 *36:6 8.12143
4 *627:A1 *36:7 0.001
5 *683:A1 *36:6 1.0
6 *683:A1 *36:5 0.001
7 *36:4 *36:6 3.06071
*END

*D_NET *37 4.13132

*CONN
*P *395 I *C 39.352 46.498
*I *518:A2 I *C 16.552 25.976
*I *520:A2 I *C 18.072 25.976
*I *720:A4 I *C 17.008 24.456

*CAP
1 *395 1.57509
2 *518:A2 0.0143505
3 *720:A4 0.12916
4 *37:7 2.15895
5 *37:8 0.253773

*RES
1 *395 *37:7 75.4589
2 *518:A2 *37:4 0.001
3 *518:A2 *37:8 1.34643
4 *520:A2 *37:7 1.0
5 *520:A2 *37:6 0.001
6 *720:A4 *37:5 0.001
7 *720:A4 *37:8 4.81702
8 *37:7 *37:8 1.975
*END

*D_NET *38 3.45549

*CONN
*P *396 I *C 34.184 46.498
*I *517:A2 I *C 20.255 24.152
*I *665:A2 I *C 23.118 26.128

*CAP
1 *396 1.94634
2 *517:A2 0.144839
3 *665:A2 0.0131402
4 *38:3 0.0301999
5 *38:4 1.32097
6 *38:5 0.0

*RES
1 *396 *38:4 55.95
2 *517:A2 *38:4 10.4966
3 *665:A2 *38:5 0.001
4 *665:A2 *38:3 0.0821839
5 *665:A2 *38:4 0.994279
*END

*D_NET *39 2.29158

*CONN
*P *397 I *C 14.728 46.498
*I *523:A1 I *C 6.520 24.304
*I *666:A1 I *C 5.639 25.961

*CAP
1 *397 1.34784
2 *523:A1 0.0591373
3 *666:A1 0.162366
4 *39:4 0.722235

*RES
1 *397 *39:4 53.1696
2 *523:A1 *39:4 2.93214
3 *523:A1 *39:3 0.001
4 *666:A1 *39:4 4.85757
*END

*D_NET *40 2.65596

*CONN
*P *398 I *C 7.736 46.498
*I *525:A2 I *C 9.256 22.632
*I *618:A1 I *C 6.824 22.480
*I *618:A3 I *C 7.280 23.240
*I *667:A2 I *C 5.730 20.656

*CAP
1 *398 1.52741
2 *525:A2 0.172024
3 *618:A1 0.0638237
4 *618:A3 0.0102603
5 *667:A2 0.260399
6 *40:5 0.0272524
7 *40:10 0.204348
8 *40:11 0.128425
9 *40:12 0.26202

*RES
1 *398 *40:12 42.0214
2 *525:A2 *40:11 5.99911
3 *525:A2 *40:9 0.001
4 *618:A1 *40:10 2.38929
5 *618:A1 *40:7 0.001
6 *618:A3 *40:11 1.345
7 *618:A3 *40:8 0.001
8 *667:A2 *40:10 6.90357
9 *667:A2 *40:6 0.001
10 *667:A2 *40:5 0.001
11 *40:10 *40:12 1.16071
12 *40:11 *40:12 0.5
*END

*D_NET *41 1.69893

*CONN
*P *399 I *C 8.344 46.498
*I *528:A2 I *C 8.344 29.320
*I *529:A2 I *C 7.432 32.664
*I *717:A4 I *C 10.016 31.144

*CAP
1 *399 0.294983
2 *528:A2 0.145061
3 *529:A2 0.00618041
4 *717:A4 0.0193518
5 *41:7 0.437911
6 *41:8 0.795445

*RES
1 *399 *41:8 26.8411
2 *528:A2 *41:7 5.99286
3 *528:A2 *41:5 0.001
4 *529:A2 *41:8 1.5
5 *529:A2 *41:4 0.001
6 *717:A4 *41:7 5.91786
7 *717:A4 *41:6 0.001
8 *41:7 *41:8 2.51786
*END

*D_NET *42 3.06997

*CONN
*P *400 I *C 30.232 46.498
*I *527:A2 I *C 9.864 36.008
*I *668:A2 I *C 9.226 34.032

*CAP
1 *400 1.65131
2 *527:A2 0.0102491
3 *668:A2 0.15315
4 *42:3 0.0272643
5 *42:4 1.228
6 *42:6 0.0

*RES
1 *400 *42:4 55.7679
2 *527:A2 *42:4 2.25893
3 *527:A2 *42:6 0.001
4 *668:A2 *42:4 4.79428
5 *668:A2 *42:5 0.001
6 *668:A2 *42:3 0.001
*END

*D_NET *43 1.84364

*CONN
*P *401 I *C 20.504 46.498
*I *532:A1 I *C 10.320 39.200
*I *669:A1 I *C 8.344 39.428

*CAP
1 *401 0.427662
2 *669:A1 0.0407527
3 *43:3 0.0247123
4 *43:4 1.35051
5 *43:6 0.0

*RES
1 *401 *43:4 32.3004
2 *532:A1 *43:6 0.001
3 *532:A1 *43:4 1.0
4 *669:A1 *43:4 4.19732
5 *669:A1 *43:5 0.001
6 *669:A1 *43:3 0.0688953
*END

*D_NET *44 1.23104

*CONN
*P *402 I *C 18.680 46.498
*I *534:A2 I *C 15.944 40.872
*I *611:A1 I *C 17.160 41.024
*I *611:A3 I *C 17.616 40.264
*I *670:A2 I *C 13.634 40.720

*CAP
1 *402 0.111843
2 *534:A2 0.00577532
3 *611:A3 0.0674535
4 *670:A2 0.00533184
5 *44:5 0.0276913
6 *44:6 0.322231
7 *44:10 0.21227
8 *44:12 0.478446

*RES
1 *402 *44:12 12.1964
2 *534:A2 *44:8 0.001
3 *534:A2 *44:6 1.21786
4 *611:A1 *44:10 1.0
5 *611:A1 *44:9 0.001
6 *611:A3 *44:11 0.001
7 *611:A3 *44:12 3.45988
8 *670:A2 *44:7 0.001
9 *670:A2 *44:5 0.001
10 *670:A2 *44:6 4.52679
11 *44:6 *44:10 3.22321
12 *44:10 *44:12 0.889286
*END

*D_NET *45 1.59386

*CONN
*P *403 I *C 22.936 46.498
*I *558:A2 I *C 21.720 30.840
*I *561:A2 I *C 20.808 32.664
*I *685:A4 I *C 21.568 34.488

*CAP
1 *403 0.682106
2 *558:A2 0.155101
3 *561:A2 0.018072
4 *45:6 0.392605
5 *45:8 0.345979

*RES
1 *403 *45:6 24.1438
2 *558:A2 *45:7 0.001
3 *558:A2 *45:8 5.99286
4 *561:A2 *45:4 0.001
5 *561:A2 *45:8 1.5
6 *685:A4 *45:6 1.0
7 *685:A4 *45:5 0.001
8 *45:6 *45:8 4.84381
*END

*D_NET *46 2.14507

*CONN
*P *404 I *C 35.096 46.498
*I *559:A2 I *C 24.912 39.352
*I *677:A2 I *C 23.878 37.376

*CAP
1 *404 1.06306
2 *559:A2 0.01264
3 *677:A2 0.209107
4 *46:3 0.0269843
5 *46:4 0.833275
6 *46:6 0.0

*RES
1 *404 *46:4 32.0643
2 *559:A2 *46:6 0.001
3 *559:A2 *46:4 1.83845
4 *677:A2 *46:5 0.001
5 *677:A2 *46:3 0.001
6 *677:A2 *46:4 5.56964
*END

*D_NET *47 1.84083

*CONN
*P *405 I *C 35.704 46.498
*I *536:A1 I *C 28.408 30.992
*I *671:A1 I *C 30.080 30.764

*CAP
1 *405 0.586895
2 *536:A1 0.00382704
3 *671:A1 0.0104314
4 *47:3 0.0251974
5 *47:4 1.21448
6 *47:6 0.0

*RES
1 *405 *47:4 38.3071
2 *536:A1 *47:4 3.61607
3 *536:A1 *47:5 0.001
4 *671:A1 *47:4 0.944643
5 *671:A1 *47:6 0.001
6 *671:A1 *47:3 0.001
*END

*D_NET *48 2.24141

*CONN
*P *406 I *C 36.616 46.498
*I *537:A2 I *C 27.040 37.528
*I *603:A1 I *C 28.712 41.024
*I *603:A3 I *C 29.168 40.264
*I *672:A2 I *C 27.162 40.720

*CAP
1 *406 0.290685
2 *537:A2 0.293838
3 *603:A1 0.00277505
4 *603:A3 0.0655164
5 *672:A2 0.0297855
6 *48:5 0.0272643
7 *48:6 0.123781
8 *48:11 0.144192
9 *48:12 1.26358

*RES
1 *406 *48:12 24.1268
2 *537:A2 *48:6 9.06167
3 *537:A2 *48:7 0.001
4 *603:A1 *48:11 1.16429
5 *603:A1 *48:9 0.001
6 *603:A3 *48:12 3.55
7 *603:A3 *48:10 0.001
8 *672:A2 *48:6 1.26571
9 *672:A2 *48:8 0.001
10 *672:A2 *48:5 0.001
11 *48:6 *48:11 2.61607
12 *48:11 *48:12 0.5
*END

*D_NET *49 3.38368

*CONN
*P *407 I *C 19.288 46.498
*I *477:A2 I *C 25.672 15.944
*I *540:A2 I *C 23.088 15.944
*I *719:A4 I *C 26.280 17.768

*CAP
1 *407 1.85333
2 *540:A2 0.0119123
3 *719:A4 0.077534
4 *49:6 0.532208
5 *49:8 0.908694

*RES
1 *407 *49:8 62.6268
2 *477:A2 *49:6 1.0
3 *477:A2 *49:5 0.001
4 *540:A2 *49:8 1.345
5 *540:A2 *49:4 0.001
6 *719:A4 *49:6 5.95
7 *719:A4 *49:7 0.001
8 *49:6 *49:8 4.19554
*END

*D_NET *50 2.82493

*CONN
*P *408 I *C 32.360 46.498
*I *541:A2 I *C 27.496 20.808
*I *673:A2 I *C 28.378 19.440

*CAP
1 *408 0.805029
2 *541:A2 0.00912433
3 *673:A2 0.0964159
4 *50:3 0.0309677
5 *50:4 1.88339
6 *50:6 0.0

*RES
1 *408 *50:4 53.8875
2 *541:A2 *50:4 2.53036
3 *541:A2 *50:5 0.001
4 *673:A2 *50:4 2.89428
5 *673:A2 *50:6 0.001
6 *673:A2 *50:3 0.0821839
*END

*D_NET *51 1.94794

*CONN
*P *409 I *C 32.968 46.498
*I *543:A1 I *C 31.849 25.824
*I *674:A1 I *C 33.217 26.128

*CAP
1 *409 0.0469564
2 *543:A1 0.133074
3 *674:A1 0.0926223
4 *51:3 0.0141219
5 *51:4 1.66117

*RES
1 *409 *51:4 35.9625
2 *543:A1 *51:4 5.20354
3 *674:A1 *51:4 2.381
4 *674:A1 *51:3 0.001
*END

*D_NET *52 3.09174

*CONN
*P *410 I *C 45.128 46.498
*I *545:A2 I *C 36.464 10.776
*I *675:A2 I *C 38.410 10.624

*CAP
1 *410 1.57479
2 *545:A2 0.0082433
3 *675:A2 0.00439535
4 *52:3 0.0271835
5 *52:4 1.47713
6 *52:6 0.0

*RES
1 *410 *52:4 76.0357
2 *545:A2 *52:4 4.37321
3 *545:A2 *52:5 0.001
4 *675:A2 *52:4 0.688636
5 *675:A2 *52:6 0.001
6 *675:A2 *52:3 0.001
*END

*D_NET *53 3.20697

*CONN
*P *411 I *C 10.168 46.498
*I *553:A2 I *C 27.192 22.632
*I *557:A2 I *C 26.280 24.152

*CAP
1 *411 1.4452
2 *553:A2 0.127255
3 *53:4 1.63451
4 *53:5 0.0

*RES
1 *411 *53:4 68.925
2 *553:A2 *53:5 0.001
3 *553:A2 *53:4 5.95
4 *557:A2 *53:4 1.0
5 *557:A2 *53:3 0.001
*END

*D_NET *54 2.34283

*CONN
*P *412 I *C 40.872 46.498