*SPEF "IEEE 1481-1999"
*DESIGN "rcla_32"
*DATE "Fri May 22 11:06:47 2026"
*VENDOR "Synopsys Inc."
*PROGRAM "StarRC"
*VERSION "U-2022.12-SP3"
*DESIGN_FLOW "PIN_CAP NONE" "NAME_SCOPE LOCAL"
*DIVIDER /
*DELIMITER :
*BUS_DELIMITER []
*T_UNIT 1.0 NS
*C_UNIT 1.0 FF
*R_UNIT 1.0 OHM
*L_UNIT 1.0 HENRY

// COMMENTS

// CORNER_NAME 
// OPERATING_TEMPERATURE 25
// GLOBAL_TEMPERATURE 25
// TCAD_GRD_FILE /home2/synopsys/libraries/SAED32_EDK/tech/starrc/nominal/saed32nm_1p9m_nominal.nxtgrd
//   TCAD_TIME_STAMP Wed Mar 16 14:34:54 2011
//   TCADGRD_VERSION 72
// galaxy_comments_begin
//   local_nodeid
// galaxy_comments_end

*NAME_MAP
*322 A[31]
*323 A[30]
*324 A[29]
*325 A[28]
*326 A[27]
*327 A[26]
*328 A[25]
*329 A[24]
*330 A[23]
*331 A[22]
*332 A[21]
*333 A[20]
*334 A[19]
*335 A[18]
*336 A[17]
*337 A[16]
*338 A[15]
*339 A[14]
*340 A[13]
*341 A[12]
*342 A[11]
*343 A[10]
*344 A[9]
*345 A[8]
*346 A[7]
*347 A[6]
*348 A[5]
*349 A[4]
*350 A[3]
*351 A[2]
*352 A[1]
*353 A[0]
*354 B[31]
*355 B[30]
*356 B[29]
*357 B[28]
*358 B[27]
*359 B[26]
*360 B[25]
*361 B[24]
*362 B[23]
*363 B[22]
*364 B[21]
*365 B[20]
*366 B[19]
*367 B[18]
*368 B[17]
*369 B[16]
*370 B[15]
*371 B[14]
*372 B[13]
*373 B[12]
*374 B[11]
*375 B[10]
*376 B[9]
*377 B[8]
*378 B[7]
*379 B[6]
*380 B[5]
*381 B[4]
*382 B[3]
*383 B[2]
*384 B[1]
*385 B[0]
*386 Cin
*387 Sum[31]
*388 Sum[30]
*389 Sum[29]
*390 Sum[28]
*391 Sum[27]
*392 Sum[26]
*393 Sum[25]
*394 Sum[24]
*395 Sum[23]
*396 Sum[22]
*397 Sum[21]
*398 Sum[20]
*399 Sum[19]
*400 Sum[18]
*401 Sum[17]
*402 Sum[16]
*403 Sum[15]
*404 Sum[14]
*405 Sum[13]
*406 Sum[12]
*407 Sum[11]
*408 Sum[10]
*409 Sum[9]
*410 Sum[8]
*411 Sum[7]
*412 Sum[6]
*413 Sum[5]
*414 Sum[4]
*415 Sum[3]
*416 Sum[2]
*417 Sum[1]
*418 Sum[0]
*419 Cout
*420 U102
*421 U103
*422 U105
*423 U106
*424 U107
*425 U109
*426 U110
*427 U112
*428 U114
*429 U119
*430 U121
*431 U124
*432 U126
*433 U127
*434 U141
*435 U142
*436 U143
*437 U144
*438 U146
*439 U147
*440 U149
*441 U150
*442 U151
*443 U153
*444 U155
*445 U156
*446 U33
*447 U34
*448 U35
*449 U36
*450 U38
*451 U39
*452 U43
*453 U44
*454 U45
*455 U46
*456 U48
*457 U49
*458 U50
*459 U54
*460 U59
*461 U60
*462 U61
*463 U63
*464 U70
*465 U73
*466 U74
*467 U77
*468 U83
*469 U84
*470 U86
*471 U87
*472 U88
*473 U89
*474 U91
*475 U98
*476 ZBUF_108_inst_508
*477 ZBUF_28_inst_509
*478 ZBUF_2_inst_2
*479 ZBUF_32_inst_507
*480 ctmTdsLR_10_404
*481 ctmTdsLR_11_405
*482 ctmTdsLR_11_526
*483 ctmTdsLR_12_406
*484 ctmTdsLR_13_220
*485 ctmTdsLR_13_407
*486 ctmTdsLR_1_104
*487 ctmTdsLR_1_123
*488 ctmTdsLR_1_13
*489 ctmTdsLR_1_137
*490 ctmTdsLR_1_140
*491 ctmTdsLR_1_146
*492 ctmTdsLR_1_147
*493 ctmTdsLR_1_155
*494 ctmTdsLR_1_174
*495 ctmTdsLR_1_208
*496 ctmTdsLR_1_264
*497 ctmTdsLR_1_265
*498 ctmTdsLR_1_266
*499 ctmTdsLR_1_267
*500 ctmTdsLR_1_268
*501 ctmTdsLR_1_269
*502 ctmTdsLR_1_270
*503 ctmTdsLR_1_278
*504 ctmTdsLR_1_280
*505 ctmTdsLR_1_281
*506 ctmTdsLR_1_282
*507 ctmTdsLR_1_284
*508 ctmTdsLR_1_285
*509 ctmTdsLR_1_289
*510 ctmTdsLR_1_291
*511 ctmTdsLR_1_293
*512 ctmTdsLR_1_295
*513 ctmTdsLR_1_297
*514 ctmTdsLR_1_298
*515 ctmTdsLR_1_299
*516 ctmTdsLR_1_300
*517 ctmTdsLR_1_302
*518 ctmTdsLR_1_305
*519 ctmTdsLR_1_307
*520 ctmTdsLR_1_308
*521 ctmTdsLR_1_310
*522 ctmTdsLR_1_312
*523 ctmTdsLR_1_314
*524 ctmTdsLR_1_316
*525 ctmTdsLR_1_317
*526 ctmTdsLR_1_323
*527 ctmTdsLR_1_336
*528 ctmTdsLR_1_393
*529 ctmTdsLR_1_419
*530 ctmTdsLR_1_46
*531 ctmTdsLR_1_490
*532 ctmTdsLR_1_510
*533 ctmTdsLR_1_516
*534 ctmTdsLR_1_528
*535 ctmTdsLR_1_553
*536 ctmTdsLR_1_562
*537 ctmTdsLR_1_563
*538 ctmTdsLR_1_63
*539 ctmTdsLR_1_75
*540 ctmTdsLR_1_83
*541 ctmTdsLR_1_88
*542 ctmTdsLR_1_91
*543 ctmTdsLR_2_105
*544 ctmTdsLR_2_110
*545 ctmTdsLR_2_149
*546 ctmTdsLR_2_15
*547 ctmTdsLR_2_156
*548 ctmTdsLR_2_19
*549 ctmTdsLR_2_209
*550 ctmTdsLR_2_23
*551 ctmTdsLR_2_28
*552 ctmTdsLR_2_283
*553 ctmTdsLR_2_286
*554 ctmTdsLR_2_292
*555 ctmTdsLR_2_294
*556 ctmTdsLR_2_296
*557 ctmTdsLR_2_301
*558 ctmTdsLR_2_309
*559 ctmTdsLR_2_318
*560 ctmTdsLR_2_337
*561 ctmTdsLR_2_38
*562 ctmTdsLR_2_394
*563 ctmTdsLR_2_47
*564 ctmTdsLR_2_491
*565 ctmTdsLR_2_511
*566 ctmTdsLR_2_517
*567 ctmTdsLR_2_529
*568 ctmTdsLR_2_554
*569 ctmTdsLR_2_564
*570 ctmTdsLR_2_76
*571 ctmTdsLR_2_80
*572 ctmTdsLR_2_84
*573 ctmTdsLR_2_89
*574 ctmTdsLR_2_92
*575 ctmTdsLR_3_106
*576 ctmTdsLR_3_145
*577 ctmTdsLR_3_20
*578 ctmTdsLR_3_210
*579 ctmTdsLR_3_338
*580 ctmTdsLR_3_34
*581 ctmTdsLR_3_39
*582 ctmTdsLR_3_397
*583 ctmTdsLR_3_512
*584 ctmTdsLR_3_518
*585 ctmTdsLR_3_530
*586 ctmTdsLR_3_555
*587 ctmTdsLR_3_74
*588 ctmTdsLR_3_77
*589 ctmTdsLR_3_81
*590 ctmTdsLR_3_85
*591 ctmTdsLR_3_90
*592 ctmTdsLR_3_93
*593 ctmTdsLR_3_98
*594 ctmTdsLR_4_17
*595 ctmTdsLR_4_21
*596 ctmTdsLR_4_211
*597 ctmTdsLR_4_25
*598 ctmTdsLR_4_30
*599 ctmTdsLR_4_35
*600 ctmTdsLR_4_398
*601 ctmTdsLR_4_513
*602 ctmTdsLR_4_519
*603 ctmTdsLR_4_531
*604 ctmTdsLR_4_556
*605 ctmTdsLR_4_82
*606 ctmTdsLR_4_86
*607 ctmTdsLR_4_94
*608 ctmTdsLR_5_100
*609 ctmTdsLR_5_212
*610 ctmTdsLR_5_399
*611 ctmTdsLR_5_514
*612 ctmTdsLR_5_520
*613 ctmTdsLR_5_532
*614 ctmTdsLR_5_557
*615 ctmTdsLR_5_67
*616 ctmTdsLR_5_87
*617 ctmTdsLR_5_95
*618 ctmTdsLR_6_400
*619 ctmTdsLR_6_51
*620 ctmTdsLR_6_521
*621 ctmTdsLR_6_533
*622 ctmTdsLR_6_558
*623 ctmTdsLR_7_401
*624 ctmTdsLR_7_52
*625 ctmTdsLR_7_522
*626 ctmTdsLR_7_559
*627 ctmTdsLR_7_69
*628 ctmTdsLR_8_402
*629 ctmTdsLR_8_523
*630 ctmTdsLR_8_53
*631 ctmTdsLR_8_560
*632 ctmTdsLR_9_403
*633 ctmTdsLR_9_524
*634 ctmTdsLR_9_54
*635 ctmTdsLR_9_561
*636 intadd_6/U19
*637 intadd_6/U29
*638 intadd_6/U30
*639 intadd_6/U31
*640 intadd_6/U32
*641 ropt_h_inst_567
*642 ropt_h_inst_568
*643 ropt_h_inst_569
*644 ropt_h_inst_570
*645 ropt_h_inst_571
*646 ropt_h_inst_572
*647 ropt_h_inst_573
*648 ropt_h_inst_574
*649 ropt_h_inst_575
*650 ropt_h_inst_576
*651 ropt_h_inst_577
*652 ropt_h_inst_578
*653 ropt_h_inst_579
*654 ropt_h_inst_580
*655 ropt_h_inst_582
*656 ropt_h_inst_584
*657 ropt_h_inst_585
*658 ropt_h_inst_588
*659 ropt_h_inst_589
*660 ropt_h_inst_590
*661 ropt_h_inst_591
*662 ropt_h_inst_592
*663 ropt_h_inst_593
*664 ropt_h_inst_594
*665 ropt_h_inst_595
*666 ropt_h_inst_596
*667 ropt_h_inst_597
*668 ropt_h_inst_598
*1 A[31]
*2 A[30]
*3 A[29]
*4 A[28]
*5 A[27]
*6 A[26]
*7 A[25]
*8 A[24]
*9 A[23]
*10 A[22]
*11 A[21]
*12 A[20]
*13 A[19]
*14 A[18]
*15 A[17]
*16 A[16]
*17 A[15]
*18 A[14]
*19 A[13]
*20 A[12]
*21 A[11]
*22 A[10]
*23 A[9]
*24 A[8]
*25 A[7]
*26 A[6]
*27 A[5]
*28 A[4]
*29 A[3]
*30 A[2]
*31 A[1]
*32 A[0]
*33 B[31]
*34 B[30]
*35 B[29]
*36 B[28]
*37 B[27]
*38 B[26]
*39 B[25]
*40 B[24]
*41 B[23]
*42 B[22]
*43 B[21]
*44 B[20]
*45 B[19]
*46 B[18]
*47 B[17]
*48 B[16]
*49 B[15]
*50 B[14]
*51 B[13]
*52 B[12]
*53 B[11]
*54 B[10]
*55 B[9]
*56 B[8]
*57 B[7]
*58 B[6]
*59 B[5]
*60 B[4]
*61 B[3]
*62 B[2]
*63 B[1]
*64 B[0]
*65 Cin
*66 Sum[31]
*67 Sum[30]
*68 Sum[29]
*69 Sum[28]
*70 Sum[27]
*71 Sum[26]
*72 Sum[25]
*73 Sum[24]
*74 Sum[23]
*75 Sum[22]
*76 Sum[21]
*77 Sum[20]
*78 Sum[19]
*79 Sum[18]
*80 Sum[17]
*81 Sum[16]
*82 Sum[15]
*83 Sum[14]
*84 Sum[13]
*85 Sum[12]
*86 Sum[11]
*87 Sum[10]
*88 Sum[9]
*89 Sum[8]
*90 Sum[7]
*91 Sum[6]
*92 Sum[5]
*93 Sum[4]
*94 Sum[3]
*95 Sum[2]
*96 Sum[1]
*97 Sum[0]
*98 Cout
*102 ZBUF_108_3
*103 ZBUF_28_3
*104 ZBUF_2_0
*105 ZBUF_32_3
*106 ZINV_4_3
*107 intadd_6/n11
*108 intadd_6/n12
*109 intadd_6/n13
*110 intadd_6/n14
*111 intadd_6/n16
*112 intadd_6/n18
*113 intadd_6/n19
*114 intadd_6/n2
*115 intadd_6/n22
*116 intadd_6/n23
*117 intadd_6/n25
*118 intadd_6/n27
*119 intadd_6/n28
*120 intadd_6/n29
*121 intadd_6/n30
*122 intadd_6/n31
*123 intadd_6/n32
*124 intadd_6/n4
*125 intadd_6/n6
*126 intadd_6/n8
*127 n101
*128 n102
*129 n103
*130 n105
*131 n106
*132 n107
*133 n108
*134 n109
*135 n110
*136 n112
*137 n114
*138 n115
*139 n116
*140 n117
*141 n118
*142 n119
*143 n120
*144 n121
*145 n122
*146 n124
*147 n128
*148 n130
*149 n131
*150 n132
*151 n134
*152 n138
*153 n139
*154 n140
*155 n142
*156 n144
*157 n145
*158 n146
*159 n148
*160 n150
*161 n152
*162 n154
*163 n157
*164 n158
*165 n63
*166 n64
*167 n65
*168 n66
*169 n67
*170 n70
*171 n71
*172 n72
*173 n73
*174 n74
*175 n75
*176 n79
*177 n80
*178 n81
*179 n82
*180 n84
*181 n85
*182 n86
*183 n87
*184 n88
*185 n94
*186 n95
*187 n98
*188 popt_net_0
*189 popt_net_102
*190 popt_net_104
*191 popt_net_105
*192 popt_net_11
*193 popt_net_12
*194 popt_net_124
*195 popt_net_125
*196 popt_net_126
*197 popt_net_127
*198 popt_net_128
*199 popt_net_129
*200 popt_net_13
*201 popt_net_130
*202 popt_net_131
*203 popt_net_132
*204 popt_net_134
*205 popt_net_135
*206 popt_net_136
*207 popt_net_137
*208 popt_net_138
*209 popt_net_139
*210 popt_net_14
*211 popt_net_140
*212 popt_net_141
*213 popt_net_142
*214 popt_net_143
*215 popt_net_144
*216 popt_net_145
*217 popt_net_146
*218 popt_net_147
*219 popt_net_148
*220 popt_net_149
*221 popt_net_150
*222 popt_net_151
*223 popt_net_152
*224 popt_net_171
*225 popt_net_172
*226 popt_net_173
*227 popt_net_174
*228 popt_net_175
*229 popt_net_176
*230 popt_net_177
*231 popt_net_19
*232 popt_net_2
*233 popt_net_22
*234 popt_net_23
*235 popt_net_24
*236 popt_net_25
*237 popt_net_27
*238 popt_net_28
*239 popt_net_3
*240 popt_net_33
*241 popt_net_35
*242 popt_net_36
*243 popt_net_37
*244 popt_net_4
*245 popt_net_40
*246 popt_net_41
*247 popt_net_42
*248 popt_net_43
*249 popt_net_44
*250 popt_net_45
*251 popt_net_46
*252 popt_net_47
*253 popt_net_48
*254 popt_net_49
*255 popt_net_50
*256 popt_net_51
*257 popt_net_52
*258 popt_net_53
*259 popt_net_54
*260 popt_net_55
*261 popt_net_56
*262 popt_net_57
*263 popt_net_58
*264 popt_net_6
*265 popt_net_60
*266 popt_net_61
*267 popt_net_63
*268 popt_net_64
*269 popt_net_65
*270 popt_net_7
*271 popt_net_8
*272 popt_net_81
*273 popt_net_83
*274 popt_net_85
*275 popt_net_86
*276 popt_net_9
*277 popt_net_94
*278 popt_net_95
*279 popt_net_98
*280 popt_net_99
*281 ropt_net_178
*282 ropt_net_179
*283 ropt_net_180
*284 ropt_net_181
*285 ropt_net_182
*286 ropt_net_183
*287 ropt_net_184
*288 ropt_net_185
*289 ropt_net_186
*290 ropt_net_187
*291 ropt_net_188
*292 ropt_net_189
*293 ropt_net_190
*294 ropt_net_191
*295 ropt_net_192
*296 ropt_net_193
*297 ropt_net_194
*298 ropt_net_195
*299 ropt_net_196
*300 ropt_net_197
*301 ropt_net_198
*302 ropt_net_199
*303 ropt_net_200
*304 ropt_net_201
*305 ropt_net_202
*306 ropt_net_203
*307 ropt_net_204
*308 ropt_net_205
*309 tmp_net107
*310 tmp_net111
*311 tmp_net112
*312 tmp_net113
*313 tmp_net115
*314 tmp_net116
*315 tmp_net117
*316 tmp_net118
*317 tmp_net119
*318 tmp_net120
*319 tmp_net121
*320 tmp_net122
*321 tmp_net123

*PORTS

*322 I
*323 I
*324 I
*325 I
*326 I
*327 I
*328 I
*329 I
*330 I
*331 I
*332 I
*333 I
*334 I
*335 I
*336 I
*337 I
*338 I
*339 I
*340 I
*341 I
*342 I
*343 I
*344 I
*345 I
*346 I
*347 I
*348 I
*349 I
*350 I
*351 I
*352 I
*353 I
*354 I
*355 I
*356 I
*357 I
*358 I
*359 I
*360 I
*361 I
*362 I
*363 I
*364 I
*365 I
*366 I
*367 I
*368 I
*369 I
*370 I
*371 I
*372 I
*373 I
*374 I
*375 I
*376 I
*377 I
*378 I
*379 I
*380 I
*381 I
*382 I
*383 I
*384 I
*385 I
*386 I
*387 O
*388 O
*389 O
*390 O
*391 O
*392 O
*393 O
*394 O
*395 O
*396 O
*397 O
*398 O
*399 O
*400 O
*401 O
*402 O
*403 O
*404 O
*405 O
*406 O
*407 O
*408 O
*409 O
*410 O
*411 O
*412 O
*413 O
*414 O
*415 O
*416 O
*417 O
*418 O
*419 O

*D_NET *1 4.18318

*CONN
*P *322 I *C 0.286 33.880
*I *526:A2 I *C 28.864 15.944
*I *570:A2 I *C 31.904 12.651
*I *588:A2 I *C 30.536 12.600

*CAP
1 *322 0.974952
2 *526:A2 0.0746569
3 *570:A2 0.00297578
4 *1:4 0.0299058
5 *1:7 0.567592
6 *1:9 2.5331

*RES
1 *322 *1:9 83.7982
2 *526:A2 *1:9 4.63571
3 *526:A2 *1:5 0.001
4 *570:A2 *1:7 2.74643
5 *570:A2 *1:8 0.001
6 *570:A2 *1:4 0.086646
7 *588:A2 *1:7 1.0
8 *588:A2 *1:6 0.001
9 *1:7 *1:9 9.38036
*END

*D_NET *2 3.93104

*CONN
*P *323 I *C 0.286 26.280
*I *431:A2 I *C 19.744 7.381
*I *575:A2 I *C 21.175 11.080
*I *657:A I *C 22.480 10.776

*CAP
1 *323 1.72512
2 *431:A2 0.387874
3 *575:A2 0.0242656
4 *657:A 0.0632761
5 *2:4 0.0279108
6 *2:7 0.0607665
7 *2:8 1.64184

*RES
1 *323 *2:8 65.6875
2 *431:A2 *2:5 0.001
3 *431:A2 *2:4 0.001
4 *431:A2 *2:8 10.1071
5 *575:A2 *2:7 1.25333
6 *657:A *2:6 0.001
7 *657:A *2:7 3.34107
8 *2:7 *2:8 0.5
*END

*D_NET *3 2.68367

*CONN
*P *324 I *C 0.286 27.496
*I *548:A1 I *C 16.096 12.448
*I *577:A1 I *C 14.977 14.272
*I *656:A I *C 14.880 12.600

*CAP
1 *324 0.745885
2 *548:A1 0.0731311
3 *577:A1 0.0933541
4 *3:4 1.5994
5 *3:6 0.1719
6 *3:7 0.0

*RES
1 *324 *3:4 50.7268
2 *548:A1 *3:6 3.34107
3 *548:A1 *3:7 0.001
4 *577:A1 *3:4 2.3
5 *656:A *3:6 1.0
6 *656:A *3:5 0.001
7 *3:4 *3:6 3.27417
*END

*D_NET *4 2.79316

*CONN
*P *325 I *C 0.136 23.848
*I *463:A2 I *C 13.213 7.432
*I *498:A2 I *C 10.928 12.651
*I *515:A2 I *C 13.208 12.296

*CAP
1 *325 0.407327
2 *463:A2 0.41067
3 *498:A2 0.0160453
4 *4:4 0.0331462
5 *4:5 1.57305
6 *4:9 0.329602
7 *4:11 0.023325
8 *4:12 0.0

*RES
1 *325 *4:5 40.6054
2 *325 *4:6 0.001
3 *463:A2 *4:12 0.0909091
4 *463:A2 *4:9 10.4893
5 *498:A2 *4:5 0.944643
6 *498:A2 *4:7 0.001
7 *498:A2 *4:4 0.086646
8 *515:A2 *4:9 1.0
9 *515:A2 *4:8 0.001
10 *4:5 *4:9 3.97321
11 *4:6 *4:11 0.001
12 *4:10 *4:12 0.001
*END

*D_NET *5 1.88081

*CONN
*P *326 I *C 0.286 18.680
*I *430:A1 I *C 11.992 14.272
*I *434:A2 I *C 12.144 12.651
*I *654:A I *C 14.576 17.464

*CAP
1 *326 0.124239
2 *430:A1 0.0146987
3 *434:A2 0.133506
4 *654:A 0.0220298
5 *5:4 0.0331462
6 *5:8 0.343882
7 *5:9 1.20931

*RES
1 *326 *5:9 26.5375
2 *430:A1 *5:8 1.34643
3 *430:A1 *5:5 0.001
4 *434:A2 *5:8 4.40893
5 *434:A2 *5:6 0.001
6 *434:A2 *5:4 0.086646
7 *654:A *5:9 2.66071
8 *654:A *5:7 0.001
9 *5:8 *5:9 8.56607
*END

*D_NET *6 2.52089

*CONN
*P *327 I *C 0.286 15.640
*I *467:A2 I *C 5.658 29.320
*I *485:A1 I *C 10.928 27.344
*I *499:A2 I *C 6.246 27.344
*I *610:A1 I *C 6.368 29.016
*I *628:A I *C 6.617 30.840

*CAP
1 *327 1.09912
2 *467:A2 0.0149391
3 *485:A1 0.000833352
4 *499:A2 0.0400868
5 *628:A 0.134001
6 *6:6 0.026824
7 *6:7 0.428114
8 *6:10 0.117689
9 *6:12 0.520833
10 *6:13 0.138454

*RES
1 *327 *6:7 34.7616
2 *467:A2 *6:7 1.144
3 *485:A1 *6:12 8.13214
4 *485:A1 *6:11 0.001
5 *499:A2 *6:12 1.33571
6 *499:A2 *6:8 0.001
7 *499:A2 *6:6 0.001
8 *610:A1 *6:10 1.0
9 *610:A1 *6:9 0.001
10 *628:A *6:13 5.25536
11 *6:7 *6:10 1.55619
12 *6:10 *6:13 1.11786
13 *6:12 *6:13 3.28929
*END

*D_NET *7 1.99704

*CONN
*P *328 I *C 0.286 16.856
*I *435:A2 I *C 5.760 17.413
*I *466:A1 I *C 5.815 18.984
*I *643:A I *C 12.545 19.303

*CAP
1 *328 0.0896364
2 *435:A2 0.0690224
3 *466:A1 0.102559
4 *643:A 0.23945
5 *7:4 0.0246705
6 *7:6 0.588359
7 *7:7 0.883342

*RES
1 *328 *7:6 12.4232
2 *435:A2 *7:6 2.16071
3 *435:A2 *7:5 0.001
4 *435:A2 *7:4 0.001
5 *466:A1 *7:7 3.41786
6 *643:A *7:7 14.8603
7 *7:6 *7:7 1.70357
*END

*D_NET *8 1.50338

*CONN
*P *329 I *C 0.286 17.464
*I *426:A2 I *C 6.921 14.424
*I *462:A2 I *C 6.064 10.822
*I *497:A2 I *C 7.128 12.651

*CAP
1 *329 0.458567
2 *426:A2 0.143345
3 *462:A2 0.184146
4 *497:A2 0.0357305
5 *8:4 0.0331462
6 *8:5 0.122108
7 *8:6 0.526338
8 *8:7 0.0

*RES
1 *329 *8:6 18.9696
2 *426:A2 *8:6 3.212
3 *462:A2 *8:5 5.777
4 *497:A2 *8:7 0.001
5 *497:A2 *8:4 0.086646
6 *497:A2 *8:5 1.21607
7 *8:5 *8:6 1.575
*END

*D_NET *9 0.937593

*CONN
*P *330 I *C 0.286 15.032
*I *428:A1 I *C 5.456 14.272
*I *436:A2 I *C 5.760 15.944
*I *437:A2 I *C 5.760 12.651

*CAP
1 *330 0.0525282
2 *428:A1 0.0263317
3 *436:A2 0.0347101
4 *437:A2 0.136242
5 *9:4 0.0331462
6 *9:8 0.207171
7 *9:9 0.447464

*RES
1 *330 *9:9 8.81964
2 *428:A1 *9:5 0.001
3 *428:A1 *9:8 2.11786
4 *436:A2 *9:7 0.001
5 *436:A2 *9:9 4.09286
6 *437:A2 *9:6 0.001
7 *437:A2 *9:4 0.086646
8 *437:A2 *9:8 4.95
9 *9:8 *9:9 1.16071
*END

*D_NET *10 2.77565

*CONN
*P *331 I *C 0.286 8.952
*I *500:A1 I *C 11.080 14.424
*I *550:A1 I *C 7.833 15.792
*I *647:A I *C 13.360 20.808

*CAP
1 *331 0.843727
2 *500:A1 0.0784836
3 *550:A1 0.0810837
4 *647:A 0.381028
5 *10:4 0.748539
6 *10:7 0.64279

*RES
1 *331 *10:4 25.2125
2 *500:A1 *10:7 2.93214
3 *500:A1 *10:5 0.001
4 *550:A1 *10:4 1.996
5 *647:A *10:7 18.3071
6 *647:A *10:6 0.001
7 *10:4 *10:7 6.275
*END

*D_NET *11 3.40433

*CONN
*P *332 I *C 0.286 8.344
*I *438:A2 I *C 7.584 22.683
*I *439:A2 I *C 8.745 22.328
*I *489:A1 I *C 14.272 27.344
*I *599:A3 I *C 8.648 19.136

*CAP
1 *332 0.793731
2 *438:A2 0.0728024
3 *439:A2 0.0705217
4 *489:A1 0.592268
5 *599:A3 0.00465282
6 *11:5 0.0331462
7 *11:7 0.610933
8 *11:10 1.22627

*RES
1 *332 *11:10 34.2143
2 *438:A2 *11:7 1.66071
3 *438:A2 *11:6 0.001
4 *438:A2 *11:5 0.086646
5 *439:A2 *11:7 2.3
6 *489:A1 *11:7 20.6795
7 *489:A1 *11:9 0.001
8 *599:A3 *11:10 1.34643
9 *599:A3 *11:8 0.001
10 *11:7 *11:10 7.04643
*END

*D_NET *12 1.91757

*CONN
*P *333 I *C 0.286 30.840
*I *496:A3 I *C 15.336 29.928
*I *546:A1 I *C 12.144 27.648
*I *653:A I *C 16.400 29.320

*CAP
1 *333 0.456231
2 *546:A1 0.167181
3 *653:A 0.0910041
4 *12:5 1.03142
5 *12:7 0.171734
6 *12:8 0.0

*RES
1 *333 *12:5 23.3125
2 *496:A3 *12:7 1.0
3 *496:A3 *12:6 0.001
4 *546:A1 *12:5 7.03743
5 *546:A1 *12:4 0.001
6 *653:A *12:7 4.39643
7 *653:A *12:8 0.001
8 *12:5 *12:7 5.50357
*END

*D_NET *13 3.84521

*CONN
*P *334 I *C 0.286 6.824
*I *440:A2 I *C 18.376 14.069
*I *441:A2 I *C 16.649 18.984
*I *490:A1 I *C 22.176 13.968
*I *598:A2 I *C 18.224 29.320

*CAP
1 *334 0.567548
2 *441:A2 0.108505
3 *598:A2 0.387587
4 *13:5 0.0230995
5 *13:6 0.62597
6 *13:10 0.723214
7 *13:11 1.40929

*RES
1 *334 *13:11 44.1696
2 *440:A2 *13:8 0.001
3 *440:A2 *13:6 0.5
4 *440:A2 *13:5 0.001
5 *441:A2 *13:10 3.11386
6 *490:A1 *13:6 7.63929
7 *490:A1 *13:9 0.001
8 *598:A2 *13:10 23.7643
9 *598:A2 *13:7 0.001
10 *13:6 *13:11 3.73393
11 *13:10 *13:11 7.40357
*END

*D_NET *14 2.14687

*CONN
*P *335 I *C 0.286 28.712
*I *451:A I *C 24.000 29.320
*I *461:A2 I *C 23.240 30.840

*CAP
1 *335 0.301934
2 *451:A 0.0146722
3 *461:A2 0.0589365
4 *14:5 1.77133

*RES
1 *335 *14:5 43.3661
2 *451:A *14:5 1.79917
3 *451:A *14:4 0.001
4 *461:A2 *14:5 4.90714
5 *461:A2 *14:3 0.001
*END

*D_NET *15 3.78713

*CONN
*P *336 I *C 0.286 7.736
*I *421:A2 I *C 28.712 27.496
*I *442:A2 I *C 27.800 27.445
*I *662:A I *C 29.320 30.840

*CAP
1 *336 1.4442
2 *442:A2 0.0736842
3 *662:A 0.0685646
4 *15:4 0.0246705
5 *15:7 0.054418
6 *15:9 2.12159

*RES
1 *336 *15:9 87.4018
2 *421:A2 *15:7 1.0
3 *421:A2 *15:6 0.001
4 *442:A2 *15:7 1.93214
5 *442:A2 *15:5 0.001
6 *442:A2 *15:4 0.001
7 *662:A *15:9 7.62143
8 *662:A *15:8 0.001
9 *15:7 *15:9 0.846429
*END

*D_NET *16 3.18544

*CONN
*P *337 I *C 0.286 14.120
*I *447:A I *C 28.864 12.600
*I *460:A2 I *C 29.168 25.976

*CAP
1 *337 0.502276
2 *447:A 0.115001
3 *460:A2 0.250059
4 *16:5 2.3181

*RES
1 *337 *16:5 51.7482
2 *447:A *16:5 4.27417
3 *447:A *16:3 0.001
4 *460:A2 *16:5 27.5018
5 *460:A2 *16:4 0.001
*END

*D_NET *17 4.17737

*CONN
*P *338 I *C 0.286 6.216
*I *443:A2 I *C 27.952 12.651
*I *473:A2 I *C 24.335 12.600
*I *507:A2 I *C 28.408 24.152

*CAP
1 *338 0.726613
2 *443:A2 0.038922
3 *473:A2 0.0460195
4 *507:A2 0.79357
5 *17:4 0.0331462
6 *17:5 1.62826
7 *17:8 0.910839

*RES
1 *338 *17:5 54.0821
2 *443:A2 *17:6 0.001
3 *443:A2 *17:4 0.086646
4 *443:A2 *17:8 1.38929
5 *473:A2 *17:5 1.74679
6 *507:A2 *17:7 0.001
7 *507:A2 *17:8 25.8286
8 *17:5 *17:8 6.14464
*END

*D_NET *18 3.14315

*CONN
*P *339 I *C 0.286 16.248
*I *589:A1 I *C 30.481 20.960
*I *605:A3 I *C 27.040 19.896
*I *660:A I *C 29.320 20.808

*CAP
1 *339 0.705906
2 *589:A1 0.0436012
3 *605:A3 0.0198816
4 *18:6 0.386573
5 *18:7 1.98718

*RES
1 *339 *18:7 54.7661
2 *589:A1 *18:6 3.09157
3 *605:A3 *18:7 1.79917
4 *605:A3 *18:4 0.001
5 *660:A *18:6 1.0
6 *660:A *18:5 0.001
7 *18:6 *18:7 5.58036
*END

*D_NET *19 3.79537

*CONN
*P *340 I *C 0.286 24.456
*I *465:A2 I *C 24.304 10.725
*I *469:A2 I *C 25.976 12.296
*I *552:A2 I *C 26.128 14.120

*CAP
1 *340 0.848031
2 *465:A2 0.192729
3 *469:A2 0.0434493
4 *552:A2 0.015644
5 *19:4 0.0279108
6 *19:8 0.389999
7 *19:9 2.27761

*RES
1 *340 *19:9 63.5161
2 *465:A2 *19:8 4.67857
3 *465:A2 *19:5 0.001
4 *465:A2 *19:4 0.001
5 *469:A2 *19:8 2.93214
6 *469:A2 *19:6 0.001
7 *552:A2 *19:9 3.20357
8 *552:A2 *19:7 0.001
9 *19:8 *19:9 3.06071
*END

*D_NET *20 1.68697

*CONN
*P *341 I *C 0.286 2.568
*I *449:A I *C 21.112 5.912
*I *663:A I *C 21.817 5.927

*CAP
1 *341 0.285628
2 *449:A 0.0388542
3 *663:A 0.0705322
4 *20:3 1.29196
5 *20:4 0.0

*RES
1 *341 *20:3 43.7679
2 *449:A *20:3 3.76964
3 *449:A *20:4 0.001
4 *663:A *20:3 2.13664
*END

*D_NET *21 3.49906

*CONN
*P *342 I *C 0.286 18.072
*I *424:A2 I *C 20.839 7.432
*I *444:A2 I *C 23.544 7.381
*I *501:A2 I *C 29.168 9.256

*CAP
1 *342 0.619564
2 *424:A2 0.0451299
3 *444:A2 0.00236091
4 *501:A2 0.0262587
5 *21:4 0.0279108
6 *21:7 0.437646
7 *21:8 2.34019

*RES
1 *342 *21:8 55.8518
2 *424:A2 *21:7 4.63429
3 *444:A2 *21:7 1.93214
4 *444:A2 *21:5 0.001
5 *444:A2 *21:4 0.001
6 *501:A2 *21:8 12.975
7 *501:A2 *21:6 0.001
8 *21:7 *21:8 3.56071
*END

*D_NET *22 3.78879

*CONN
*P *343 I *C 0.286 34.488
*I *565:A1 I *C 24.760 22.480
*I *583:A1 I *C 26.128 22.480
*I *601:A1 I *C 25.976 20.656

*CAP
1 *343 0.852674
2 *565:A1 0.00789701
3 *583:A1 0.00859716
4 *601:A1 0.169239
5 *22:4 2.47476
6 *22:5 0.275627
7 *22:8 0.0

*RES
1 *343 *22:4 66.2964
2 *565:A1 *22:4 1.48929
3 *565:A1 *22:6 0.001
4 *583:A1 *22:5 1.48929
5 *583:A1 *22:8 0.001
6 *601:A1 *22:5 5.0375
7 *601:A1 *22:7 0.001
8 *22:4 *22:5 2.44286
*END

*D_NET *23 2.88506

*CONN
*P *344 I *C 0.286 28.104
*I *604:A1 I *C 19.288 22.480
*I *626:A1 I *C 20.960 19.136
*I *631:A1 I *C 22.231 21.568

*CAP
1 *344 0.825952
2 *626:A1 0.193921
3 *631:A1 0.0556193
4 *23:5 1.52087
5 *23:7 0.288697

*RES
1 *344 *23:5 44.4839
2 *604:A1 *23:5 1.0
3 *604:A1 *23:4 0.001
4 *626:A1 *23:6 0.001
5 *626:A1 *23:7 5.9456
6 *631:A1 *23:7 3.609
7 *23:5 *23:7 4.99286
*END

*D_NET *24 3.39474

*CONN
*P *345 I *C 0.286 11.688
*I *568:A I *C 17.008 22.632
*I *614:A3 I *C 18.212 23.240
*I *622:A1 I *C 18.017 19.136

*CAP
1 *345 0.793954
2 *568:A 0.0342874
3 *614:A3 0.0877842
4 *622:A1 0.0470163
5 *24:5 2.20508
6 *24:6 0.226619

*RES
1 *345 *24:5 43.9411
2 *568:A *24:4 0.001
3 *568:A *24:6 1.79917
4 *614:A3 *24:6 4.07893
5 *622:A1 *24:5 2.35986
6 *24:5 *24:6 6.54643
*END

*D_NET *25 3.2407

*CONN
*P *346 I *C 0.286 4.696
*I *482:A1 I *C 21.264 24.912
*I *602:A I *C 16.400 24.152

*CAP
1 *346 1.50544
2 *482:A1 0.622984
3 *602:A 0.0176227
4 *25:5 1.09466

*RES
1 *346 *25:5 62.9732
2 *482:A1 *25:5 12.5071
3 *482:A1 *25:4 0.001
4 *602:A *25:5 2.66071
5 *602:A *25:3 0.001
*END

*D_NET *26 1.71276

*CONN
*P *347 I *C 0.286 25.672
*I *566:A I *C 19.592 29.320

*CAP
1 *347 0.29716
2 *26:3 1.4156

*RES
1 *347 *26:3 42.5839
2 *566:A *26:3 1.0
3 *566:A *26:2 0.001
*END

*D_NET *27 2.03386

*CONN
*P *348 I *C 0.286 29.624
*I *585:A1 I *C 19.744 30.992
*I *603:A1 I *C 18.680 30.992
*I *621:A I *C 18.777 27.496

*CAP
1 *348 0.193595
2 *585:A1 0.00950516
3 *621:A 0.284377
4 *27:5 0.161847
5 *27:7 1.38454

*RES
1 *348 *27:7 35.4839
2 *585:A1 *27:5 2.70357
3 *585:A1 *27:6 0.001
4 *603:A1 *27:5 1.0
5 *603:A1 *27:4 0.001
6 *621:A *27:7 6.94643
7 *27:5 *27:7 1.1625
*END

*D_NET *28 1.39598

*CONN
*P *349 I *C 0.286 30.232
*I *637:A I *C 16.379 31.296

*CAP
1 *349 0.182619
2 *637:A 0.0342725
3 *28:2 1.17908

*RES
1 *349 *28:2 31.1839
2 *637:A *28:2 1.0
*END

*D_NET *29 1.15702

*CONN
*P *350 I *C 0.286 35.096
*I *638:A I *C 13.491 31.296

*CAP
1 *350 0.210285
2 *638:A 0.0335314
3 *29:2 0.913203

*RES
1 *350 *29:2 31.1089
2 *638:A *29:2 1.0
*END

*D_NET *30 2.57461

*CONN
*P *351 I *C 0.286 3.480
*I *639:A I *C 9.256 31.296

*CAP
1 *351 0.811817
2 *30:2 1.76279
3 *30:3 0.0

*RES
1 *351 *30:2 70.2894
2 *639:A *30:3 0.001
3 *639:A *30:2 3.29107
*END

*D_NET *31 2.2863

*CONN
*P *352 I *C 0.286 5.608
*I *640:A I *C 7.736 28.864

*CAP
1 *352 0.653817
2 *31:3 1.63248

*RES
1 *352 *31:3 55.3411
2 *640:A *31:3 1.0
3 *640:A *31:2 0.001
*END

*D_NET *32 1.61011

*CONN
*P *353 I *C 0.286 1.960
*I *432:A2 I *C 7.584 9.256
*I *445:A3 I *C 10.472 5.760
*I *536:A2 I *C 9.104 10.776

*CAP
1 *353 0.343891
2 *432:A2 0.0495182
3 *445:A3 0.000428164
4 *536:A2 0.152342
5 *32:7 0.909066
6 *32:8 0.154862

*RES
1 *353 *32:7 21.6839
2 *432:A2 *32:8 2.66071
3 *432:A2 *32:4 0.001
4 *445:A3 *32:7 4.60357
5 *445:A3 *32:6 0.001
6 *536:A2 *32:8 5.22321
7 *536:A2 *32:5 0.001
8 *32:7 *32:8 6.54643
*END

*D_NET *33 1.70326

*CONN
*P *354 I *C 33.880 36.466
*I *642:A I *C 31.241 17.464

*CAP
1 *354 0.287826
2 *33:2 1.41543

*RES
1 *354 *33:2 40.0761
2 *642:A *33:2 0.194
*END

*D_NET *34 3.52703

*CONN
*P *355 I *C 10.472 36.466
*I *431:A1 I *C 19.440 7.584
*I *493:A2 I *C 20.656 9.256
*I *575:A1 I *C 21.101 10.776

*CAP
1 *355 1.15468
2 *431:A1 0.122265
3 *493:A2 0.0121222
4 *575:A1 0.0885337
5 *34:6 1.95645
6 *34:7 0.192978

*RES
1 *355 *34:6 64.9304
2 *431:A1 *34:6 5.13131
3 *431:A1 *34:4 0.001
4 *493:A2 *34:7 1.6625
5 *493:A2 *34:5 0.001
6 *575:A1 *34:7 4.32143
7 *34:6 *34:7 2.475
*END

*D_NET *35 3.15929

*CONN
*P *356 I *C 11.992 36.466
*I *548:A2 I *C 16.400 12.651
*I *577:A2 I *C 14.911 14.120
*I *595:A2 I *C 17.920 12.600

*CAP
1 *356 1.83066
2 *548:A2 0.0109472
3 *577:A2 0.140201
4 *595:A2 0.0880612
5 *35:4 0.0331462
6 *35:7 0.86988
7 *35:8 0.186396

*RES
1 *356 *35:7 47.8304
2 *548:A2 *35:8 0.7075
3 *548:A2 *35:5 0.001
4 *548:A2 *35:4 0.086646
5 *577:A2 *35:7 3.46107
6 *595:A2 *35:8 3.29554
7 *595:A2 *35:6 0.001
8 *35:7 *35:8 3.87679
*END

*D_NET *36 3.5383

*CONN
*P *357 I *C 2.568 36.466
*I *463:A1 I *C 12.600 7.280
*I *498:A1 I *C 10.569 12.448
*I *515:A1 I *C 13.041 12.600

*CAP
1 *357 1.71645
2 *463:A1 0.353038
3 *498:A1 0.0588329
4 *515:A1 0.059261
5 *36:4 1.20191
6 *36:6 0.148812

*RES
1 *357 *36:4 57.7518
2 *463:A1 *36:6 10.4893
3 *463:A1 *36:5 0.001
4 *498:A1 *36:4 1.692
5 *515:A1 *36:6 2.39243
6 *36:4 *36:6 3.60357
*END

*D_NET *37 3.50192

*CONN
*P *358 I *C 31.144 36.466
*I *430:A2 I *C 11.840 14.120
*I *434:A1 I *C 11.785 12.448
*I *492:A2 I *C 20.960 15.944

*CAP
1 *358 0.545904
2 *430:A2 0.0261542
3 *434:A1 0.146291
4 *492:A2 0.0179818
5 *37:6 1.00747
6 *37:7 1.75812

*RES
1 *358 *37:7 55.8732
2 *430:A2 *37:4 0.001
3 *430:A2 *37:6 1.79917
4 *434:A1 *37:6 5.72681
5 *492:A2 *37:5 0.001
6 *492:A2 *37:7 1.79917
7 *37:6 *37:7 19.9536
*END

*D_NET *38 3.26552

*CONN
*P *359 I *C 26.888 36.466
*I *467:A1 I *C 5.511 29.016
*I *485:A2 I *C 11.232 27.504
*I *499:A1 I *C 6.489 27.444
*I *618:A I *C 5.608 30.840
*I *623:A1 I *C 7.888 31.144

*CAP
1 *359 0.332317
2 *467:A1 0.0379093
3 *485:A2 0.294486
4 *499:A1 0.142281
5 *623:A1 0.00382791
6 *38:6 0.26871
7 *38:8 0.0177646
8 *38:10 0.365702
9 *38:11 1.80252

*RES
1 *359 *38:11 37.6982
2 *467:A1 *38:10 1.634
3 *485:A2 *38:11 7.81807
4 *499:A1 *38:10 6.01829
5 *618:A *38:8 1.0
6 *618:A *38:7 0.001
7 *623:A1 *38:9 0.001
8 *623:A1 *38:6 1.44464
9 *38:6 *38:11 7.1875
10 *38:6 *38:8 3.99554
11 *38:8 *38:10 3.56071
*END

*D_NET *39 2.05316

*CONN
*P *360 I *C 11.384 36.466
*I *435:A1 I *C 6.119 17.616
*I *466:A2 I *C 5.962 19.288
*I *494:A2 I *C 11.217 17.532

*CAP
1 *360 0.169804
2 *435:A1 0.0281527
3 *466:A2 0.108906
4 *494:A2 0.0351706
5 *39:4 0.227933
6 *39:5 1.48319

*RES
1 *360 *39:5 36.2402
2 *435:A1 *39:4 1.91521
3 *466:A2 *39:4 5.23007
4 *494:A2 *39:5 1.345
5 *39:4 *39:5 7.82232
*END

*D_NET *40 2.40934

*CONN
*P *361 I *C 5.912 36.466
*I *426:A1 I *C 6.824 14.120
*I *462:A1 I *C 6.064 10.624
*I *497:A1 I *C 6.824 12.448

*CAP
1 *361 1.67715
2 *426:A1 0.0153228
3 *462:A1 0.161904
4 *497:A1 0.0232694
5 *40:7 0.259775
6 *40:8 0.271924

*RES
1 *361 *40:8 41.4786
2 *426:A1 *40:8 1.5
3 *426:A1 *40:6 0.001
4 *462:A1 *40:7 5.72143
5 *462:A1 *40:4 0.001
6 *497:A1 *40:7 1.5
7 *497:A1 *40:5 0.001
8 *40:7 *40:8 2.78929
*END

*D_NET *41 2.31633

*CONN
*P *362 I *C 6.520 36.466
*I *428:A2 I *C 5.249 14.120
*I *436:A1 I *C 6.064 16.096
*I *437:A1 I *C 5.401 12.448

*CAP
1 *362 0.919717
2 *428:A2 0.0310485
3 *436:A1 0.0119282
4 *437:A1 0.0355611
5 *41:4 0.165756
6 *41:7 0.978022
7 *41:8 0.174295

*RES
1 *362 *41:7 36.8196
2 *428:A2 *41:4 0.802
3 *428:A2 *41:8 0.05
4 *436:A1 *41:7 1.79917
5 *436:A1 *41:6 0.001
6 *437:A1 *41:4 4.45
7 *41:5 *41:8 0.001
8 *41:7 *41:8 7.06786
*END

*D_NET *42 2.83711

*CONN
*P *363 I *C 23.544 36.466
*I *500:A2 I *C 11.232 14.120
*I *550:A2 I *C 8.192 15.995
*I *597:A2 I *C 13.208 22.784

*CAP
1 *363 0.44998
2 *500:A2 0.0511398
3 *550:A2 0.287886
4 *597:A2 0.0584982
5 *42:4 0.0331462
6 *42:8 0.311758
7 *42:9 1.64471

*RES
1 *363 *42:9 43.6696
2 *500:A2 *42:8 3.18845
3 *500:A2 *42:6 0.001
4 *550:A2 *42:8 8.78214
5 *550:A2 *42:5 0.001
6 *550:A2 *42:4 0.086646
7 *597:A2 *42:9 3.58131
8 *597:A2 *42:7 0.001
9 *42:8 *42:9 17.5232
*END

*D_NET *43 2.53664

*CONN
*P *364 I *C 15.944 36.466
*I *438:A1 I *C 7.280 22.480
*I *439:A1 I *C 8.648 22.632
*I *489:A2 I *C 13.968 27.496
*I *599:A2 I *C 8.952 19.136

*CAP
1 *364 0.15094
2 *438:A1 0.00759111
3 *599:A2 0.195638
4 *43:7 0.272424
5 *43:10 1.14007
6 *43:11 0.769978

*RES
1 *364 *43:10 19.7518
2 *438:A1 *43:7 3.5625
3 *438:A1 *43:5 0.001
4 *439:A1 *43:7 1.0
5 *439:A1 *43:6 0.001
6 *489:A2 *43:10 1.0
7 *489:A2 *43:9 0.001
8 *599:A2 *43:11 9.65833
9 *599:A2 *43:8 0.001
10 *43:7 *43:11 3.01786
11 *43:10 *43:11 15.6232
*END

*D_NET *44 1.47632

*CONN
*P *365 I *C 14.424 36.466
*I *496:A4 I *C 15.184 29.472
*I *546:A2 I *C 12.448 27.445
*I *664:A I *C 13.816 25.976

*CAP
1 *365 0.099622
2 *546:A2 0.0572448
3 *664:A 0.154531
4 *44:4 0.0279108
5 *44:5 0.611742
6 *44:9 0.525267

*RES
1 *365 *44:5 13.8741
2 *496:A4 *44:8 0.001
3 *496:A4 *44:5 1.345
4 *546:A2 *44:6 0.001
5 *546:A2 *44:4 0.001
6 *546:A2 *44:9 5.68929
7 *664:A *44:7 0.001
8 *664:A *44:9 6.40119
9 *44:5 *44:9 3.56071
*END

*D_NET *45 2.96544

*CONN
*P *366 I *C 18.072 36.466
*I *440:A1 I *C 18.735 14.272
*I *441:A1 I *C 16.552 19.288
*I *490:A2 I *C 21.872 14.120
*I *598:A1 I *C 18.072 29.168

*CAP
1 *366 0.147175
2 *440:A1 0.0384773
3 *441:A1 0.0174588
4 *490:A2 0.0806156
5 *598:A1 0.0964284
6 *45:5 0.732468
7 *45:8 0.726689
8 *45:10 1.12613

*RES
1 *366 *45:5 14.9643
2 *440:A1 *45:8 1.692
3 *441:A1 *45:6 0.001
4 *441:A1 *45:10 1.5
5 *490:A2 *45:9 0.001
6 *490:A2 *45:8 7.87774
7 *598:A1 *45:7 0.001
8 *598:A1 *45:5 2.53036
9 *45:5 *45:10 18.9339
10 *45:8 *45:10 12.5929
*END

*D_NET *46 1.06161

*CONN
*P *367 I *C 27.496 36.466
*I *446:A I *C 25.520 30.840